/*--------------------------------*- C++ -*----------------------------------*\
| =========                 |                                                 |
| \\      /  F ield         | OpenFOAM: The Open Source CFD Toolbox           |
|  \\    /   O peration     | Version:  2406                                  |
|   \\  /    A nd           | Website:  www.openfoam.com                      |
|    \\/     M anipulation  |                                                 |
\*---------------------------------------------------------------------------*/
FoamFile
{
    version     2.0;
    format      ascii;
    arch        "LSB;label=32;scalar=64";
    class       featureEdgeMesh;
    location    "constant/triSurface";
    object      ofen_walls.eMesh;
}
// * * * * * * * * * * * * * * * * * * * * * * * * * * * * * * * * * * * * * //


// points:

452
(
(0.2 -0.15000001 0.15000001)
(0.2 -0.15000001 0)
(0.2 0.15000001 0)
(0.2 0.15000001 0.15000001)
(-0.2 0.15000001 0.15000001)
(-0.2 0.15000001 0)
(-0.2 -0.15000001 0)
(-0.2 -0.15000001 0.15000001)
(0.2 -0.15000001 0.1425)
(0.2 -0.15000001 0.13500001)
(0.2 -0.15000001 0.1275)
(0.2 -0.15000001 0.12)
(0.2 -0.15000001 0.1125)
(0.2 -0.15000001 0.105)
(0.2 -0.15000001 0.097499996)
(0.2 -0.15000001 0.090000004)
(0.2 -0.15000001 0.082500003)
(0.2 -0.15000001 0.075000003)
(0.2 -0.15000001 0.067500003)
(0.2 -0.15000001 0.059999999)
(0.2 -0.15000001 0.052499998)
(0.2 -0.15000001 0.045000002)
(0.2 -0.15000001 0.037500001)
(0.2 -0.15000001 0.029999999)
(0.2 -0.15000001 0.022500001)
(0.2 -0.15000001 0.015)
(0.2 -0.15000001 0.0074999998)
(0.2 0.15000001 0.0074999998)
(0.2 0.15000001 0.015)
(0.2 0.15000001 0.022500001)
(0.2 0.15000001 0.029999999)
(0.2 0.15000001 0.037500001)
(0.2 0.15000001 0.045000002)
(0.2 0.15000001 0.052499998)
(0.2 0.15000001 0.059999999)
(0.2 0.15000001 0.067500003)
(0.2 0.15000001 0.075000003)
(0.2 0.15000001 0.082500003)
(0.2 0.15000001 0.090000004)
(0.2 0.15000001 0.097499996)
(0.2 0.15000001 0.105)
(0.2 0.15000001 0.1125)
(0.2 0.15000001 0.12)
(0.2 0.15000001 0.1275)
(0.2 0.15000001 0.13500001)
(0.2 0.15000001 0.1425)
(-0.2 0.15000001 0.1425)
(-0.2 0.15000001 0.13500001)
(-0.2 0.15000001 0.1275)
(-0.2 0.15000001 0.12)
(-0.2 0.15000001 0.1125)
(-0.2 0.15000001 0.105)
(-0.2 0.15000001 0.097499996)
(-0.2 0.15000001 0.090000004)
(-0.2 0.15000001 0.082500003)
(-0.2 0.15000001 0.075000003)
(-0.2 0.15000001 0.067500003)
(-0.2 0.15000001 0.059999999)
(-0.2 0.15000001 0.052499998)
(-0.2 0.15000001 0.045000002)
(-0.2 0.15000001 0.037500001)
(-0.2 0.15000001 0.029999999)
(-0.2 0.15000001 0.022500001)
(-0.2 0.15000001 0.015)
(-0.2 0.15000001 0.0074999998)
(-0.2 -0.15000001 0.0074999998)
(-0.2 -0.15000001 0.015)
(-0.2 -0.15000001 0.022500001)
(-0.2 -0.15000001 0.029999999)
(-0.2 -0.15000001 0.037500001)
(-0.2 -0.15000001 0.045000002)
(-0.2 -0.15000001 0.052499998)
(-0.2 -0.15000001 0.059999999)
(-0.2 -0.15000001 0.067500003)
(-0.2 -0.15000001 0.075000003)
(-0.2 -0.15000001 0.082500003)
(-0.2 -0.15000001 0.090000004)
(-0.2 -0.15000001 0.097499996)
(-0.2 -0.15000001 0.105)
(-0.2 -0.15000001 0.1125)
(-0.2 -0.15000001 0.12)
(-0.2 -0.15000001 0.1275)
(-0.2 -0.15000001 0.13500001)
(-0.2 -0.15000001 0.1425)
(0.19259261 -0.15000001 0)
(0.18518519 -0.15000001 0)
(0.1777778 -0.15000001 0)
(0.1703704 -0.15000001 0)
(0.162963 -0.15000001 0)
(0.15555561 -0.15000001 0)
(0.1481481 -0.15000001 0)
(0.14074069 -0.15000001 0)
(0.1333333 -0.15000001 0)
(0.1259259 -0.15000001 0)
(0.1185185 -0.15000001 0)
(0.1111111 -0.15000001 0)
(0.1037037 -0.15000001 0)
(0.096296303 -0.15000001 0)
(0.088888891 -0.15000001 0)
(0.081481479 -0.15000001 0)
(0.074074067 -0.15000001 0)
(0.06666667 -0.15000001 0)
(0.059259258 -0.15000001 0)
(0.05185185 -0.15000001 0)
(0.044444442 -0.15000001 0)
(0.037037041 -0.15000001 0)
(0.029629629 -0.15000001 0)
(0.022222221 -0.15000001 0)
(0.01481481 -0.15000001 0)
(0.0074074068 -0.15000001 0)
(5.5511151e-17 -0.15000001 0)
(-0.0074074068 -0.15000001 0)
(-0.01481481 -0.15000001 0)
(-0.022222221 -0.15000001 0)
(-0.029629629 -0.15000001 0)
(-0.037037041 -0.15000001 0)
(-0.044444442 -0.15000001 0)
(-0.05185185 -0.15000001 0)
(-0.059259258 -0.15000001 0)
(-0.06666667 -0.15000001 0)
(-0.074074067 -0.15000001 0)
(-0.081481479 -0.15000001 0)
(-0.088888891 -0.15000001 0)
(-0.096296303 -0.15000001 0)
(-0.1037037 -0.15000001 0)
(-0.1111111 -0.15000001 0)
(-0.1185185 -0.15000001 0)
(-0.1259259 -0.15000001 0)
(-0.1333333 -0.15000001 0)
(-0.14074069 -0.15000001 0)
(-0.1481481 -0.15000001 0)
(-0.15555561 -0.15000001 0)
(-0.162963 -0.15000001 0)
(-0.1703704 -0.15000001 0)
(-0.1777778 -0.15000001 0)
(-0.18518519 -0.15000001 0)
(-0.19259261 -0.15000001 0)
(-0.19259261 0.15000001 0)
(-0.18518519 0.15000001 0)
(-0.1777778 0.15000001 0)
(-0.1703704 0.15000001 0)
(-0.162963 0.15000001 0)
(-0.15555561 0.15000001 0)
(-0.1481481 0.15000001 0)
(-0.14074069 0.15000001 0)
(-0.1333333 0.15000001 0)
(-0.1259259 0.15000001 0)
(-0.1185185 0.15000001 0)
(-0.1111111 0.15000001 0)
(-0.1037037 0.15000001 0)
(-0.096296303 0.15000001 0)
(-0.088888891 0.15000001 0)
(-0.081481479 0.15000001 0)
(-0.074074067 0.15000001 0)
(-0.06666667 0.15000001 0)
(-0.059259258 0.15000001 0)
(-0.05185185 0.15000001 0)
(-0.044444442 0.15000001 0)
(-0.037037041 0.15000001 0)
(-0.029629629 0.15000001 0)
(-0.022222221 0.15000001 0)
(-0.01481481 0.15000001 0)
(-0.0074074068 0.15000001 0)
(-5.5511151e-17 0.15000001 0)
(0.0074074068 0.15000001 0)
(0.01481481 0.15000001 0)
(0.022222221 0.15000001 0)
(0.029629629 0.15000001 0)
(0.037037041 0.15000001 0)
(0.044444442 0.15000001 0)
(0.05185185 0.15000001 0)
(0.059259258 0.15000001 0)
(0.06666667 0.15000001 0)
(0.074074067 0.15000001 0)
(0.081481479 0.15000001 0)
(0.088888891 0.15000001 0)
(0.096296303 0.15000001 0)
(0.1037037 0.15000001 0)
(0.1111111 0.15000001 0)
(0.1185185 0.15000001 0)
(0.1259259 0.15000001 0)
(0.1333333 0.15000001 0)
(0.14074069 0.15000001 0)
(0.1481481 0.15000001 0)
(0.15555561 0.15000001 0)
(0.162963 0.15000001 0)
(0.1703704 0.15000001 0)
(0.1777778 0.15000001 0)
(0.18518519 0.15000001 0)
(0.19259261 0.15000001 0)
(-0.19259261 -0.15000001 0.15000001)
(-0.18518519 -0.15000001 0.15000001)
(-0.1777778 -0.15000001 0.15000001)
(-0.1703704 -0.15000001 0.15000001)
(-0.162963 -0.15000001 0.15000001)
(-0.15555561 -0.15000001 0.15000001)
(-0.1481481 -0.15000001 0.15000001)
(-0.14074069 -0.15000001 0.15000001)
(-0.1333333 -0.15000001 0.15000001)
(-0.1259259 -0.15000001 0.15000001)
(-0.1185185 -0.15000001 0.15000001)
(-0.1111111 -0.15000001 0.15000001)
(-0.1037037 -0.15000001 0.15000001)
(-0.096296303 -0.15000001 0.15000001)
(-0.088888891 -0.15000001 0.15000001)
(-0.081481479 -0.15000001 0.15000001)
(-0.074074067 -0.15000001 0.15000001)
(-0.06666667 -0.15000001 0.15000001)
(-0.059259258 -0.15000001 0.15000001)
(-0.05185185 -0.15000001 0.15000001)
(-0.044444442 -0.15000001 0.15000001)
(-0.037037041 -0.15000001 0.15000001)
(-0.029629629 -0.15000001 0.15000001)
(-0.022222221 -0.15000001 0.15000001)
(-0.01481481 -0.15000001 0.15000001)
(-0.0074074068 -0.15000001 0.15000001)
(5.5511151e-17 -0.15000001 0.15000001)
(0.0074074068 -0.15000001 0.15000001)
(0.01481481 -0.15000001 0.15000001)
(0.022222221 -0.15000001 0.15000001)
(0.029629629 -0.15000001 0.15000001)
(0.037037041 -0.15000001 0.15000001)
(0.044444442 -0.15000001 0.15000001)
(0.05185185 -0.15000001 0.15000001)
(0.059259258 -0.15000001 0.15000001)
(0.06666667 -0.15000001 0.15000001)
(0.074074067 -0.15000001 0.15000001)
(0.081481479 -0.15000001 0.15000001)
(0.088888891 -0.15000001 0.15000001)
(0.096296303 -0.15000001 0.15000001)
(0.1037037 -0.15000001 0.15000001)
(0.1111111 -0.15000001 0.15000001)
(0.1185185 -0.15000001 0.15000001)
(0.1259259 -0.15000001 0.15000001)
(0.1333333 -0.15000001 0.15000001)
(0.14074069 -0.15000001 0.15000001)
(0.1481481 -0.15000001 0.15000001)
(0.15555561 -0.15000001 0.15000001)
(0.162963 -0.15000001 0.15000001)
(0.1703704 -0.15000001 0.15000001)
(0.1777778 -0.15000001 0.15000001)
(0.18518519 -0.15000001 0.15000001)
(0.19259261 -0.15000001 0.15000001)
(0.19259261 0.15000001 0.15000001)
(0.18518519 0.15000001 0.15000001)
(0.1777778 0.15000001 0.15000001)
(0.1703704 0.15000001 0.15000001)
(0.162963 0.15000001 0.15000001)
(0.15555561 0.15000001 0.15000001)
(0.1481481 0.15000001 0.15000001)
(0.14074069 0.15000001 0.15000001)
(0.1333333 0.15000001 0.15000001)
(0.1259259 0.15000001 0.15000001)
(0.1185185 0.15000001 0.15000001)
(0.1111111 0.15000001 0.15000001)
(0.1037037 0.15000001 0.15000001)
(0.096296303 0.15000001 0.15000001)
(0.088888891 0.15000001 0.15000001)
(0.081481479 0.15000001 0.15000001)
(0.074074067 0.15000001 0.15000001)
(0.06666667 0.15000001 0.15000001)
(0.059259258 0.15000001 0.15000001)
(0.05185185 0.15000001 0.15000001)
(0.044444442 0.15000001 0.15000001)
(0.037037041 0.15000001 0.15000001)
(0.029629629 0.15000001 0.15000001)
(0.022222221 0.15000001 0.15000001)
(0.01481481 0.15000001 0.15000001)
(0.0074074068 0.15000001 0.15000001)
(-5.5511151e-17 0.15000001 0.15000001)
(-0.0074074068 0.15000001 0.15000001)
(-0.01481481 0.15000001 0.15000001)
(-0.022222221 0.15000001 0.15000001)
(-0.029629629 0.15000001 0.15000001)
(-0.037037041 0.15000001 0.15000001)
(-0.044444442 0.15000001 0.15000001)
(-0.05185185 0.15000001 0.15000001)
(-0.059259258 0.15000001 0.15000001)
(-0.06666667 0.15000001 0.15000001)
(-0.074074067 0.15000001 0.15000001)
(-0.081481479 0.15000001 0.15000001)
(-0.088888891 0.15000001 0.15000001)
(-0.096296303 0.15000001 0.15000001)
(-0.1037037 0.15000001 0.15000001)
(-0.1111111 0.15000001 0.15000001)
(-0.1185185 0.15000001 0.15000001)
(-0.1259259 0.15000001 0.15000001)
(-0.1333333 0.15000001 0.15000001)
(-0.14074069 0.15000001 0.15000001)
(-0.1481481 0.15000001 0.15000001)
(-0.15555561 0.15000001 0.15000001)
(-0.162963 0.15000001 0.15000001)
(-0.1703704 0.15000001 0.15000001)
(-0.1777778 0.15000001 0.15000001)
(-0.18518519 0.15000001 0.15000001)
(-0.19259261 0.15000001 0.15000001)
(0.2 -0.1425 0.15000001)
(0.2 -0.1425 0)
(0.2 -0.13500001 0)
(0.2 -0.1275 0)
(0.2 -0.12 0)
(0.2 -0.1125 0)
(0.2 -0.105 0)
(0.2 -0.097499996 0)
(0.2 -0.090000004 0)
(0.2 -0.082500003 0)
(0.2 -0.075000003 0)
(0.2 -0.067500003 0)
(0.2 -0.059999999 0)
(0.2 -0.052499998 0)
(0.2 -0.045000002 0)
(0.2 -0.037500001 0)
(0.2 -0.029999999 0)
(0.2 -0.022500001 0)
(0.2 -0.015 0)
(0.2 -0.0074999998 0)
(0.2 8.3266727e-17 0)
(0.2 0.0074999998 0)
(0.2 0.015 0)
(0.2 0.022500001 0)
(0.2 0.029999999 0)
(0.2 0.037500001 0)
(0.2 0.045000002 0)
(0.2 0.052499998 0)
(0.2 0.059999999 0)
(0.2 0.067500003 0)
(0.2 0.075000003 0)
(0.2 0.082500003 0)
(0.2 0.090000004 0)
(0.2 0.097499996 0)
(0.2 0.105 0)
(0.2 0.1125 0)
(0.2 0.12 0)
(0.2 0.1275 0)
(0.2 0.13500001 0)
(0.2 0.1425 0)
(0.2 0.1425 0.15000001)
(0.2 0.13500001 0.15000001)
(0.2 0.1275 0.15000001)
(0.2 0.12 0.15000001)
(0.2 0.1125 0.15000001)
(0.2 0.105 0.15000001)
(0.2 0.097499996 0.15000001)
(0.2 0.090000004 0.15000001)
(0.2 0.082500003 0.15000001)
(0.2 0.075000003 0.15000001)
(0.2 0.067500003 0.15000001)
(0.2 0.059999999 0.15000001)
(0.2 0.052499998 0.15000001)
(0.2 0.045000002 0.15000001)
(0.2 0.037500001 0.15000001)
(0.2 0.029999999 0.15000001)
(0.2 0.022500001 0.15000001)
(0.2 0.015 0.15000001)
(0.2 0.0074999998 0.15000001)
(0.2 8.3266727e-17 0.15000001)
(0.2 -0.0074999998 0.15000001)
(0.2 -0.015 0.15000001)
(0.2 -0.022500001 0.15000001)
(0.2 -0.029999999 0.15000001)
(0.2 -0.037500001 0.15000001)
(0.2 -0.045000002 0.15000001)
(0.2 -0.052499998 0.15000001)
(0.2 -0.059999999 0.15000001)
(0.2 -0.067500003 0.15000001)
(0.2 -0.075000003 0.15000001)
(0.2 -0.082500003 0.15000001)
(0.2 -0.090000004 0.15000001)
(0.2 -0.097499996 0.15000001)
(0.2 -0.105 0.15000001)
(0.2 -0.1125 0.15000001)
(0.2 -0.12 0.15000001)
(0.2 -0.1275 0.15000001)
(0.2 -0.13500001 0.15000001)
(-0.2 0.1425 0.15000001)
(-0.2 0.1425 0)
(-0.2 0.13500001 0)
(-0.2 0.1275 0)
(-0.2 0.12 0)
(-0.2 0.1125 0)
(-0.2 0.105 0)
(-0.2 0.097499996 0)
(-0.2 0.090000004 0)
(-0.2 0.082500003 0)
(-0.2 0.075000003 0)
(-0.2 0.067500003 0)
(-0.2 0.059999999 0)
(-0.2 0.052499998 0)
(-0.2 0.045000002 0)
(-0.2 0.037500001 0)
(-0.2 0.029999999 0)
(-0.2 0.022500001 0)
(-0.2 0.015 0)
(-0.2 0.0074999998 0)
(-0.2 -8.3266727e-17 0)
(-0.2 -0.0074999998 0)
(-0.2 -0.015 0)
(-0.2 -0.022500001 0)
(-0.2 -0.029999999 0)
(-0.2 -0.037500001 0)
(-0.2 -0.045000002 0)
(-0.2 -0.052499998 0)
(-0.2 -0.059999999 0)
(-0.2 -0.067500003 0)
(-0.2 -0.075000003 0)
(-0.2 -0.082500003 0)
(-0.2 -0.090000004 0)
(-0.2 -0.097499996 0)
(-0.2 -0.105 0)
(-0.2 -0.1125 0)
(-0.2 -0.12 0)
(-0.2 -0.1275 0)
(-0.2 -0.13500001 0)
(-0.2 -0.1425 0)
(-0.2 -0.1425 0.15000001)
(-0.2 -0.13500001 0.15000001)
(-0.2 -0.1275 0.15000001)
(-0.2 -0.12 0.15000001)
(-0.2 -0.1125 0.15000001)
(-0.2 -0.105 0.15000001)
(-0.2 -0.097499996 0.15000001)
(-0.2 -0.090000004 0.15000001)
(-0.2 -0.082500003 0.15000001)
(-0.2 -0.075000003 0.15000001)
(-0.2 -0.067500003 0.15000001)
(-0.2 -0.059999999 0.15000001)
(-0.2 -0.052499998 0.15000001)
(-0.2 -0.045000002 0.15000001)
(-0.2 -0.037500001 0.15000001)
(-0.2 -0.029999999 0.15000001)
(-0.2 -0.022500001 0.15000001)
(-0.2 -0.015 0.15000001)
(-0.2 -0.0074999998 0.15000001)
(-0.2 -8.3266727e-17 0.15000001)
(-0.2 0.0074999998 0.15000001)
(-0.2 0.015 0.15000001)
(-0.2 0.022500001 0.15000001)
(-0.2 0.029999999 0.15000001)
(-0.2 0.037500001 0.15000001)
(-0.2 0.045000002 0.15000001)
(-0.2 0.052499998 0.15000001)
(-0.2 0.059999999 0.15000001)
(-0.2 0.067500003 0.15000001)
(-0.2 0.075000003 0.15000001)
(-0.2 0.082500003 0.15000001)
(-0.2 0.090000004 0.15000001)
(-0.2 0.097499996 0.15000001)
(-0.2 0.105 0.15000001)
(-0.2 0.1125 0.15000001)
(-0.2 0.12 0.15000001)
(-0.2 0.1275 0.15000001)
(-0.2 0.13500001 0.15000001)
)


// edges:

456
(
(296 0)
(1 297)
(297 298)
(299 300)
(301 302)
(303 304)
(305 306)
(307 308)
(309 310)
(311 312)
(313 314)
(315 316)
(317 318)
(319 320)
(321 322)
(323 324)
(325 326)
(327 328)
(329 330)
(331 332)
(333 334)
(335 2)
(3 336)
(336 337)
(338 339)
(340 341)
(342 343)
(344 345)
(346 347)
(348 349)
(350 351)
(352 353)
(354 355)
(356 357)
(358 359)
(360 361)
(362 363)
(364 365)
(366 367)
(368 369)
(370 371)
(372 373)
(298 299)
(300 301)
(302 303)
(304 305)
(306 307)
(308 309)
(310 311)
(312 313)
(314 315)
(316 317)
(318 319)
(320 321)
(322 323)
(324 325)
(326 327)
(328 329)
(330 331)
(332 333)
(334 335)
(337 338)
(339 340)
(341 342)
(343 344)
(345 346)
(347 348)
(349 350)
(351 352)
(353 354)
(355 356)
(357 358)
(359 360)
(361 362)
(363 364)
(365 366)
(367 368)
(369 370)
(371 372)
(373 296)
(374 4)
(5 375)
(375 376)
(377 378)
(379 380)
(381 382)
(383 384)
(385 386)
(387 388)
(389 390)
(391 392)
(393 394)
(395 396)
(397 398)
(399 400)
(401 402)
(403 404)
(405 406)
(407 408)
(409 410)
(411 412)
(413 6)
(7 414)
(414 415)
(416 417)
(418 419)
(420 421)
(422 423)
(424 425)
(426 427)
(428 429)
(430 431)
(432 433)
(434 435)
(436 437)
(438 439)
(440 441)
(442 443)
(444 445)
(446 447)
(448 449)
(450 451)
(376 377)
(378 379)
(380 381)
(382 383)
(384 385)
(386 387)
(388 389)
(390 391)
(392 393)
(394 395)
(396 397)
(398 399)
(400 401)
(402 403)
(404 405)
(406 407)
(408 409)
(410 411)
(412 413)
(415 416)
(417 418)
(419 420)
(421 422)
(423 424)
(425 426)
(427 428)
(429 430)
(431 432)
(433 434)
(435 436)
(437 438)
(439 440)
(441 442)
(443 444)
(445 446)
(447 448)
(449 450)
(451 374)
(0 8)
(8 9)
(10 11)
(12 13)
(14 15)
(16 17)
(18 19)
(20 21)
(22 23)
(24 25)
(26 1)
(2 27)
(27 28)
(29 30)
(31 32)
(33 34)
(35 36)
(37 38)
(39 40)
(41 42)
(43 44)
(45 3)
(9 10)
(11 12)
(13 14)
(15 16)
(17 18)
(19 20)
(21 22)
(23 24)
(25 26)
(28 29)
(30 31)
(32 33)
(34 35)
(36 37)
(38 39)
(40 41)
(42 43)
(44 45)
(4 46)
(46 47)
(48 49)
(50 51)
(52 53)
(54 55)
(56 57)
(58 59)
(60 61)
(62 63)
(64 5)
(6 65)
(65 66)
(67 68)
(69 70)
(71 72)
(73 74)
(75 76)
(77 78)
(79 80)
(81 82)
(83 7)
(47 48)
(49 50)
(51 52)
(53 54)
(55 56)
(57 58)
(59 60)
(61 62)
(63 64)
(66 67)
(68 69)
(70 71)
(72 73)
(74 75)
(76 77)
(78 79)
(80 81)
(82 83)
(1 84)
(84 85)
(86 87)
(88 89)
(90 91)
(92 93)
(94 95)
(96 97)
(98 99)
(100 101)
(102 103)
(104 105)
(106 107)
(108 109)
(110 111)
(112 113)
(114 115)
(116 117)
(118 119)
(120 121)
(122 123)
(124 125)
(126 127)
(128 129)
(130 131)
(132 133)
(134 135)
(136 6)
(5 137)
(137 138)
(139 140)
(141 142)
(143 144)
(145 146)
(147 148)
(149 150)
(151 152)
(153 154)
(155 156)
(157 158)
(159 160)
(161 162)
(163 164)
(165 166)
(167 168)
(169 170)
(171 172)
(173 174)
(175 176)
(177 178)
(179 180)
(181 182)
(183 184)
(185 186)
(187 188)
(189 2)
(85 86)
(87 88)
(89 90)
(91 92)
(93 94)
(95 96)
(97 98)
(99 100)
(101 102)
(103 104)
(105 106)
(107 108)
(109 110)
(111 112)
(113 114)
(115 116)
(117 118)
(119 120)
(121 122)
(123 124)
(125 126)
(127 128)
(129 130)
(131 132)
(133 134)
(135 136)
(138 139)
(140 141)
(142 143)
(144 145)
(146 147)
(148 149)
(150 151)
(152 153)
(154 155)
(156 157)
(158 159)
(160 161)
(162 163)
(164 165)
(166 167)
(168 169)
(170 171)
(172 173)
(174 175)
(176 177)
(178 179)
(180 181)
(182 183)
(184 185)
(186 187)
(188 189)
(7 190)
(190 191)
(192 193)
(194 195)
(196 197)
(198 199)
(200 201)
(202 203)
(204 205)
(206 207)
(208 209)
(210 211)
(212 213)
(214 215)
(216 217)
(218 219)
(220 221)
(222 223)
(224 225)
(226 227)
(228 229)
(230 231)
(232 233)
(234 235)
(236 237)
(238 239)
(240 241)
(242 0)
(3 243)
(243 244)
(245 246)
(247 248)
(249 250)
(251 252)
(253 254)
(255 256)
(257 258)
(259 260)
(261 262)
(263 264)
(265 266)
(267 268)
(269 270)
(271 272)
(273 274)
(275 276)
(277 278)
(279 280)
(281 282)
(283 284)
(285 286)
(287 288)
(289 290)
(291 292)
(293 294)
(295 4)
(191 192)
(193 194)
(195 196)
(197 198)
(199 200)
(201 202)
(203 204)
(205 206)
(207 208)
(209 210)
(211 212)
(213 214)
(215 216)
(217 218)
(219 220)
(221 222)
(223 224)
(225 226)
(227 228)
(229 230)
(231 232)
(233 234)
(235 236)
(237 238)
(239 240)
(241 242)
(244 245)
(246 247)
(248 249)
(250 251)
(252 253)
(254 255)
(256 257)
(258 259)
(260 261)
(262 263)
(264 265)
(266 267)
(268 269)
(270 271)
(272 273)
(274 275)
(276 277)
(278 279)
(280 281)
(282 283)
(284 285)
(286 287)
(288 289)
(290 291)
(292 293)
(294 295)
)

// * * * * * * * * * * * * * * * * * * * * * * * * * * * * * * * * * * * * * //


// ************************************************************************* //
