/*--------------------------------*- C++ -*----------------------------------*\
| =========                 |                                                 |
| \\      /  F ield         | OpenFOAM: The Open Source CFD Toolbox           |
|  \\    /   O peration     | Version:  2406                                  |
|   \\  /    A nd           | Website:  www.openfoam.com                      |
|    \\/     M anipulation  |                                                 |
\*---------------------------------------------------------------------------*/
FoamFile
{
    version     2.0;
    format      ascii;
    arch        "LSB;label=32;scalar=64";
    class       extendedFeatureEdgeMesh;
    location    "constant/extendedFeatureEdgeMesh";
    object      keksen.extendedFeatureEdgeMesh;
}
// * * * * * * * * * * * * * * * * * * * * * * * * * * * * * * * * * * * * * //

// points

3870
(
(0.090000004 0 0.035)
(0.089875773 -0.0024891959 0.035)
(0.089504309 -0.004953654 0.035)
(0.088889323 -0.0073688789 0.035)
(0.08803691 -0.0097108698 0.035)
(0.08695554 -0.01195635 0.035)
(0.085655972 -0.014083 0.035)
(0.084151112 -0.01606969 0.035)
(0.082455918 -0.017896671 0.035)
(0.080587253 -0.01954579 0.035)
(0.07856366 -0.02100065 0.035)
(0.076405272 -0.0222468 0.035)
(0.07413353 -0.02327184 0.035)
(0.071771011 -0.02406561 0.035)
(0.069341198 -0.02462019 0.035)
(0.066868253 -0.02493009 0.035)
(0.064376727 -0.024992229 0.035)
(0.06189141 -0.02480598 0.035)
(0.059436981 -0.0243732 0.035)
(0.05703783 -0.023698181 0.035)
(0.05471782 -0.022787649 0.035)
(0.052499998 -0.02165064 0.035)
(0.050406411 -0.020298449 0.035)
(0.04845785 -0.01874453 0.035)
(0.0466737 -0.01700432 0.035)
(0.045071691 -0.01509511 0.035)
(0.04366773 -0.01303588 0.035)
(0.042475779 -0.01084709 0.035)
(0.04150768 -0.0085505042 0.035)
(0.040773071 -0.006168935 0.035)
(0.040279228 -0.003726057 0.035)
(0.040031079 -0.001246147 0.035)
(0.040031079 0.001246147 0.035)
(0.040279228 0.003726057 0.035)
(0.040773071 0.006168935 0.035)
(0.04150768 0.0085505042 0.035)
(0.042475779 0.01084709 0.035)
(0.04366773 0.01303588 0.035)
(0.045071691 0.01509511 0.035)
(0.0466737 0.01700432 0.035)
(0.04845785 0.01874453 0.035)
(0.050406411 0.020298449 0.035)
(0.052499998 0.02165064 0.035)
(0.05471782 0.022787649 0.035)
(0.05703783 0.023698181 0.035)
(0.059436981 0.0243732 0.035)
(0.06189141 0.02480598 0.035)
(0.064376727 0.024992229 0.035)
(0.066868253 0.02493009 0.035)
(0.069341198 0.02462019 0.035)
(0.071771011 0.02406561 0.035)
(0.07413353 0.02327184 0.035)
(0.076405272 0.0222468 0.035)
(0.07856366 0.02100065 0.035)
(0.080587253 0.01954579 0.035)
(0.082455918 0.017896671 0.035)
(0.084151112 0.01606969 0.035)
(0.085655972 0.014083 0.035)
(0.08695554 0.01195635 0.035)
(0.08803691 0.0097108698 0.035)
(0.088889323 0.0073688789 0.035)
(0.089504309 0.004953654 0.035)
(0.089875773 0.0024891959 0.035)
(0.091120727 0.0024942281 0.039190002)
(0.091239549 9.5812229e-24 0.039190002)
(0.091120727 -0.0024942281 0.039190002)
(0.090765372 -0.0049658669 0.039190002)
(0.090176657 -0.007392535 0.039190002)
(0.089359947 -0.0097522549 0.039190002)
(0.088322639 -0.01202366 0.039190002)
(0.087074108 -0.01418617 0.039190002)
(0.085625678 -0.01622021 0.039190002)
(0.083990447 -0.01810736 0.039190002)
(0.082183249 -0.019830531 0.039190002)
(0.080220431 -0.021374101 0.039190002)
(0.07811977 -0.02272412 0.039190002)
(0.075900301 -0.02386833 0.039190002)
(0.07358212 -0.024796391 0.039190002)
(0.071186207 -0.025499901 0.039190002)
(0.068734281 -0.025972471 0.039190002)
(0.066248529 -0.026209829 0.039190002)
(0.063751467 -0.026209829 0.039190002)
(0.061265718 -0.025972471 0.039190002)
(0.058813792 -0.025499901 0.039190002)
(0.056417879 -0.024796391 0.039190002)
(0.054099701 -0.02386833 0.039190002)
(0.051880229 -0.02272412 0.039190002)
(0.049779572 -0.021374101 0.039190002)
(0.04781675 -0.019830531 0.039190002)
(0.046009552 -0.01810736 0.039190002)
(0.044374321 -0.01622021 0.039190002)
(0.042925891 -0.01418617 0.039190002)
(0.041677359 -0.01202366 0.039190002)
(0.040640049 -0.0097522549 0.039190002)
(0.039823338 -0.007392535 0.039190002)
(0.039234631 -0.0049658669 0.039190002)
(0.038879272 -0.0024942281 0.039190002)
(0.03876045 -4.2467019e-17 0.039190002)
(0.038879272 0.0024942281 0.039190002)
(0.039234631 0.0049658669 0.039190002)
(0.039823338 0.007392535 0.039190002)
(0.040640049 0.0097522549 0.039190002)
(0.041677359 0.01202366 0.039190002)
(0.042925891 0.01418617 0.039190002)
(0.044374321 0.01622021 0.039190002)
(0.046009552 0.01810736 0.039190002)
(0.04781675 0.019830531 0.039190002)
(0.049779572 0.021374101 0.039190002)
(0.051880229 0.02272412 0.039190002)
(0.054099701 0.02386833 0.039190002)
(0.056417879 0.024796391 0.039190002)
(0.058813792 0.025499901 0.039190002)
(0.061265718 0.025972471 0.039190002)
(0.063751467 0.026209829 0.039190002)
(0.066248529 0.026209829 0.039190002)
(0.068734281 0.025972471 0.039190002)
(0.071186207 0.025499901 0.039190002)
(0.07358212 0.024796391 0.039190002)
(0.075900301 0.02386833 0.039190002)
(0.07811977 0.02272412 0.039190002)
(0.080220431 0.021374101 0.039190002)
(0.082183249 0.019830531 0.039190002)
(0.083990447 0.01810736 0.039190002)
(0.085625678 0.01622021 0.039190002)
(0.087074108 0.01418617 0.039190002)
(0.088322639 0.01202366 0.039190002)
(0.089359947 0.0097522549 0.039190002)
(0.090176657 0.007392535 0.039190002)
(0.090765372 0.0049658669 0.039190002)
(0.155 0 0.035)
(0.1548758 -0.0024891959 0.035)
(0.1545043 -0.004953654 0.035)
(0.1538893 -0.0073688789 0.035)
(0.15303691 -0.0097108698 0.035)
(0.1519555 -0.01195635 0.035)
(0.150656 -0.014083 0.035)
(0.1491511 -0.01606969 0.035)
(0.1474559 -0.017896671 0.035)
(0.14558721 -0.01954579 0.035)
(0.1435637 -0.02100065 0.035)
(0.1414053 -0.0222468 0.035)
(0.1391335 -0.02327184 0.035)
(0.13677099 -0.02406561 0.035)
(0.1343412 -0.02462019 0.035)
(0.1318683 -0.02493009 0.035)
(0.12937669 -0.024992229 0.035)
(0.1268914 -0.02480598 0.035)
(0.124437 -0.0243732 0.035)
(0.1220378 -0.023698181 0.035)
(0.1197178 -0.022787649 0.035)
(0.1175 -0.02165064 0.035)
(0.1154064 -0.020298449 0.035)
(0.1134579 -0.01874453 0.035)
(0.1116737 -0.01700432 0.035)
(0.1100717 -0.01509511 0.035)
(0.1086677 -0.01303588 0.035)
(0.1074758 -0.01084709 0.035)
(0.1065077 -0.0085505042 0.035)
(0.1057731 -0.006168935 0.035)
(0.1052792 -0.003726057 0.035)
(0.1050311 -0.001246147 0.035)
(0.1050311 0.001246147 0.035)
(0.1052792 0.003726057 0.035)
(0.1057731 0.006168935 0.035)
(0.1065077 0.0085505042 0.035)
(0.1074758 0.01084709 0.035)
(0.1086677 0.01303588 0.035)
(0.1100717 0.01509511 0.035)
(0.1116737 0.01700432 0.035)
(0.1134579 0.01874453 0.035)
(0.1154064 0.020298449 0.035)
(0.1175 0.02165064 0.035)
(0.1197178 0.022787649 0.035)
(0.1220378 0.023698181 0.035)
(0.124437 0.0243732 0.035)
(0.1268914 0.02480598 0.035)
(0.12937669 0.024992229 0.035)
(0.1318683 0.02493009 0.035)
(0.1343412 0.02462019 0.035)
(0.13677099 0.02406561 0.035)
(0.1391335 0.02327184 0.035)
(0.1414053 0.0222468 0.035)
(0.1435637 0.02100065 0.035)
(0.14558721 0.01954579 0.035)
(0.1474559 0.017896671 0.035)
(0.1491511 0.01606969 0.035)
(0.150656 0.014083 0.035)
(0.1519555 0.01195635 0.035)
(0.15303691 0.0097108698 0.035)
(0.1538893 0.0073688789 0.035)
(0.1545043 0.004953654 0.035)
(0.1548758 0.0024891959 0.035)
(0.1561207 0.0024942281 0.039190002)
(0.15623949 9.5812229e-24 0.039190002)
(0.1561207 -0.0024942281 0.039190002)
(0.1557654 -0.0049658669 0.039190002)
(0.1551767 -0.007392535 0.039190002)
(0.15436 -0.0097522549 0.039190002)
(0.15332261 -0.01202366 0.039190002)
(0.1520741 -0.01418617 0.039190002)
(0.15062571 -0.01622021 0.039190002)
(0.1489905 -0.01810736 0.039190002)
(0.14718319 -0.019830531 0.039190002)
(0.1452204 -0.021374101 0.039190002)
(0.1431198 -0.02272412 0.039190002)
(0.1409003 -0.02386833 0.039190002)
(0.1385821 -0.024796391 0.039190002)
(0.1361862 -0.025499901 0.039190002)
(0.1337343 -0.025972471 0.039190002)
(0.1312485 -0.026209829 0.039190002)
(0.1287515 -0.026209829 0.039190002)
(0.1262657 -0.025972471 0.039190002)
(0.1238138 -0.025499901 0.039190002)
(0.1214179 -0.024796391 0.039190002)
(0.1190997 -0.02386833 0.039190002)
(0.1168802 -0.02272412 0.039190002)
(0.1147796 -0.021374101 0.039190002)
(0.1128168 -0.019830531 0.039190002)
(0.1110095 -0.01810736 0.039190002)
(0.1093743 -0.01622021 0.039190002)
(0.1079259 -0.01418617 0.039190002)
(0.1066774 -0.01202366 0.039190002)
(0.10564 -0.0097522549 0.039190002)
(0.1048233 -0.007392535 0.039190002)
(0.1042346 -0.0049658669 0.039190002)
(0.1038793 -0.0024942281 0.039190002)
(0.1037605 -4.2467019e-17 0.039190002)
(0.1038793 0.0024942281 0.039190002)
(0.1042346 0.0049658669 0.039190002)
(0.1048233 0.007392535 0.039190002)
(0.10564 0.0097522549 0.039190002)
(0.1066774 0.01202366 0.039190002)
(0.1079259 0.01418617 0.039190002)
(0.1093743 0.01622021 0.039190002)
(0.1110095 0.01810736 0.039190002)
(0.1128168 0.019830531 0.039190002)
(0.1147796 0.021374101 0.039190002)
(0.1168802 0.02272412 0.039190002)
(0.1190997 0.02386833 0.039190002)
(0.1214179 0.024796391 0.039190002)
(0.1238138 0.025499901 0.039190002)
(0.1262657 0.025972471 0.039190002)
(0.1287515 0.026209829 0.039190002)
(0.1312485 0.026209829 0.039190002)
(0.1337343 0.025972471 0.039190002)
(0.1361862 0.025499901 0.039190002)
(0.1385821 0.024796391 0.039190002)
(0.1409003 0.02386833 0.039190002)
(0.1431198 0.02272412 0.039190002)
(0.1452204 0.021374101 0.039190002)
(0.14718319 0.019830531 0.039190002)
(0.1489905 0.01810736 0.039190002)
(0.15062571 0.01622021 0.039190002)
(0.1520741 0.01418617 0.039190002)
(0.15332261 0.01202366 0.039190002)
(0.15436 0.0097522549 0.039190002)
(0.1551767 0.007392535 0.039190002)
(0.1557654 0.0049658669 0.039190002)
(-0.039999999 0 0.035)
(-0.04012423 -0.0024891959 0.035)
(-0.04049569 -0.004953654 0.035)
(-0.04111068 -0.0073688789 0.035)
(-0.041963089 -0.0097108698 0.035)
(-0.043044459 -0.01195635 0.035)
(-0.04434403 -0.014083 0.035)
(-0.045848891 -0.01606969 0.035)
(-0.047544081 -0.017896671 0.035)
(-0.04941275 -0.01954579 0.035)
(-0.051436339 -0.02100065 0.035)
(-0.053594731 -0.0222468 0.035)
(-0.055866469 -0.02327184 0.035)
(-0.058228988 -0.02406561 0.035)
(-0.060658801 -0.02462019 0.035)
(-0.06313175 -0.02493009 0.035)
(-0.065623268 -0.024992229 0.035)
(-0.068108588 -0.02480598 0.035)
(-0.070563018 -0.0243732 0.035)
(-0.072962172 -0.023698181 0.035)
(-0.075282179 -0.022787649 0.035)
(-0.077500001 -0.02165064 0.035)
(-0.079593591 -0.020298449 0.035)
(-0.081542149 -0.01874453 0.035)
(-0.083326302 -0.01700432 0.035)
(-0.084928311 -0.01509511 0.035)
(-0.086332269 -0.01303588 0.035)
(-0.08752422 -0.01084709 0.035)
(-0.088492319 -0.0085505042 0.035)
(-0.089226931 -0.006168935 0.035)
(-0.089720771 -0.003726057 0.035)
(-0.08996892 -0.001246147 0.035)
(-0.08996892 0.001246147 0.035)
(-0.089720771 0.003726057 0.035)
(-0.089226931 0.006168935 0.035)
(-0.088492319 0.0085505042 0.035)
(-0.08752422 0.01084709 0.035)
(-0.086332269 0.01303588 0.035)
(-0.084928311 0.01509511 0.035)
(-0.083326302 0.01700432 0.035)
(-0.081542149 0.01874453 0.035)
(-0.079593591 0.020298449 0.035)
(-0.077500001 0.02165064 0.035)
(-0.075282179 0.022787649 0.035)
(-0.072962172 0.023698181 0.035)
(-0.070563018 0.0243732 0.035)
(-0.068108588 0.02480598 0.035)
(-0.065623268 0.024992229 0.035)
(-0.06313175 0.02493009 0.035)
(-0.060658801 0.02462019 0.035)
(-0.058228988 0.02406561 0.035)
(-0.055866469 0.02327184 0.035)
(-0.053594731 0.0222468 0.035)
(-0.051436339 0.02100065 0.035)
(-0.04941275 0.01954579 0.035)
(-0.047544081 0.017896671 0.035)
(-0.045848891 0.01606969 0.035)
(-0.04434403 0.014083 0.035)
(-0.043044459 0.01195635 0.035)
(-0.041963089 0.0097108698 0.035)
(-0.04111068 0.0073688789 0.035)
(-0.04049569 0.004953654 0.035)
(-0.04012423 0.0024891959 0.035)
(-0.038879272 0.0024942281 0.039190002)
(-0.03876045 3.0657138e-23 0.039190002)
(-0.038879272 -0.0024942281 0.039190002)
(-0.039234631 -0.0049658669 0.039190002)
(-0.039823338 -0.007392535 0.039190002)
(-0.040640049 -0.0097522549 0.039190002)
(-0.041677359 -0.01202366 0.039190002)
(-0.042925891 -0.01418617 0.039190002)
(-0.044374321 -0.01622021 0.039190002)
(-0.046009552 -0.01810736 0.039190002)
(-0.04781675 -0.019830531 0.039190002)
(-0.049779572 -0.021374101 0.039190002)
(-0.051880229 -0.02272412 0.039190002)
(-0.054099701 -0.02386833 0.039190002)
(-0.056417879 -0.024796391 0.039190002)
(-0.058813792 -0.025499901 0.039190002)
(-0.061265718 -0.025972471 0.039190002)
(-0.063751467 -0.026209829 0.039190002)
(-0.066248529 -0.026209829 0.039190002)
(-0.068734281 -0.025972471 0.039190002)
(-0.071186207 -0.025499901 0.039190002)
(-0.07358212 -0.024796391 0.039190002)
(-0.075900301 -0.02386833 0.039190002)
(-0.07811977 -0.02272412 0.039190002)
(-0.080220431 -0.021374101 0.039190002)
(-0.082183249 -0.019830531 0.039190002)
(-0.083990447 -0.01810736 0.039190002)
(-0.085625678 -0.01622021 0.039190002)
(-0.087074108 -0.01418617 0.039190002)
(-0.088322639 -0.01202366 0.039190002)
(-0.089359947 -0.0097522549 0.039190002)
(-0.090176657 -0.007392535 0.039190002)
(-0.090765372 -0.0049658669 0.039190002)
(-0.091120727 -0.0024942281 0.039190002)
(-0.091239549 -4.2467019e-17 0.039190002)
(-0.091120727 0.0024942281 0.039190002)
(-0.090765372 0.0049658669 0.039190002)
(-0.090176657 0.007392535 0.039190002)
(-0.089359947 0.0097522549 0.039190002)
(-0.088322639 0.01202366 0.039190002)
(-0.087074108 0.01418617 0.039190002)
(-0.085625678 0.01622021 0.039190002)
(-0.083990447 0.01810736 0.039190002)
(-0.082183249 0.019830531 0.039190002)
(-0.080220431 0.021374101 0.039190002)
(-0.07811977 0.02272412 0.039190002)
(-0.075900301 0.02386833 0.039190002)
(-0.07358212 0.024796391 0.039190002)
(-0.071186207 0.025499901 0.039190002)
(-0.068734281 0.025972471 0.039190002)
(-0.066248529 0.026209829 0.039190002)
(-0.063751467 0.026209829 0.039190002)
(-0.061265718 0.025972471 0.039190002)
(-0.058813792 0.025499901 0.039190002)
(-0.056417879 0.024796391 0.039190002)
(-0.054099701 0.02386833 0.039190002)
(-0.051880229 0.02272412 0.039190002)
(-0.049779572 0.021374101 0.039190002)
(-0.04781675 0.019830531 0.039190002)
(-0.046009552 0.01810736 0.039190002)
(-0.044374321 0.01622021 0.039190002)
(-0.042925891 0.01418617 0.039190002)
(-0.041677359 0.01202366 0.039190002)
(-0.040640049 0.0097522549 0.039190002)
(-0.039823338 0.007392535 0.039190002)
(-0.039234631 0.0049658669 0.039190002)
(-0.105 0 0.035)
(-0.1051242 -0.0024891959 0.035)
(-0.1054957 -0.004953654 0.035)
(-0.1061107 -0.0073688789 0.035)
(-0.1069631 -0.0097108698 0.035)
(-0.1080445 -0.01195635 0.035)
(-0.109344 -0.014083 0.035)
(-0.1108489 -0.01606969 0.035)
(-0.1125441 -0.017896671 0.035)
(-0.1144128 -0.01954579 0.035)
(-0.1164363 -0.02100065 0.035)
(-0.1185947 -0.0222468 0.035)
(-0.1208665 -0.02327184 0.035)
(-0.123229 -0.02406561 0.035)
(-0.1256588 -0.02462019 0.035)
(-0.1281317 -0.02493009 0.035)
(-0.1306233 -0.024992229 0.035)
(-0.1331086 -0.02480598 0.035)
(-0.135563 -0.0243732 0.035)
(-0.13796221 -0.023698181 0.035)
(-0.1402822 -0.022787649 0.035)
(-0.1425 -0.02165064 0.035)
(-0.1445936 -0.020298449 0.035)
(-0.1465421 -0.01874453 0.035)
(-0.14832629 -0.01700432 0.035)
(-0.1499283 -0.01509511 0.035)
(-0.1513323 -0.01303588 0.035)
(-0.1525242 -0.01084709 0.035)
(-0.1534923 -0.0085505042 0.035)
(-0.1542269 -0.006168935 0.035)
(-0.1547208 -0.003726057 0.035)
(-0.1549689 -0.001246147 0.035)
(-0.1549689 0.001246147 0.035)
(-0.1547208 0.003726057 0.035)
(-0.1542269 0.006168935 0.035)
(-0.1534923 0.0085505042 0.035)
(-0.1525242 0.01084709 0.035)
(-0.1513323 0.01303588 0.035)
(-0.1499283 0.01509511 0.035)
(-0.14832629 0.01700432 0.035)
(-0.1465421 0.01874453 0.035)
(-0.1445936 0.020298449 0.035)
(-0.1425 0.02165064 0.035)
(-0.1402822 0.022787649 0.035)
(-0.13796221 0.023698181 0.035)
(-0.135563 0.0243732 0.035)
(-0.1331086 0.02480598 0.035)
(-0.1306233 0.024992229 0.035)
(-0.1281317 0.02493009 0.035)
(-0.1256588 0.02462019 0.035)
(-0.123229 0.02406561 0.035)
(-0.1208665 0.02327184 0.035)
(-0.1185947 0.0222468 0.035)
(-0.1164363 0.02100065 0.035)
(-0.1144128 0.01954579 0.035)
(-0.1125441 0.017896671 0.035)
(-0.1108489 0.01606969 0.035)
(-0.109344 0.014083 0.035)
(-0.1080445 0.01195635 0.035)
(-0.1069631 0.0097108698 0.035)
(-0.1061107 0.0073688789 0.035)
(-0.1054957 0.004953654 0.035)
(-0.1051242 0.0024891959 0.035)
(-0.1038793 0.0024942281 0.039190002)
(-0.1037605 9.5812229e-24 0.039190002)
(-0.1038793 -0.0024942281 0.039190002)
(-0.1042346 -0.0049658669 0.039190002)
(-0.1048233 -0.007392535 0.039190002)
(-0.10564 -0.0097522549 0.039190002)
(-0.1066774 -0.01202366 0.039190002)
(-0.1079259 -0.01418617 0.039190002)
(-0.1093743 -0.01622021 0.039190002)
(-0.1110095 -0.01810736 0.039190002)
(-0.1128168 -0.019830531 0.039190002)
(-0.1147796 -0.021374101 0.039190002)
(-0.1168802 -0.02272412 0.039190002)
(-0.1190997 -0.02386833 0.039190002)
(-0.1214179 -0.024796391 0.039190002)
(-0.1238138 -0.025499901 0.039190002)
(-0.1262657 -0.025972471 0.039190002)
(-0.1287515 -0.026209829 0.039190002)
(-0.1312485 -0.026209829 0.039190002)
(-0.1337343 -0.025972471 0.039190002)
(-0.1361862 -0.025499901 0.039190002)
(-0.1385821 -0.024796391 0.039190002)
(-0.1409003 -0.02386833 0.039190002)
(-0.1431198 -0.02272412 0.039190002)
(-0.1452204 -0.021374101 0.039190002)
(-0.14718319 -0.019830531 0.039190002)
(-0.1489905 -0.01810736 0.039190002)
(-0.15062571 -0.01622021 0.039190002)
(-0.1520741 -0.01418617 0.039190002)
(-0.15332261 -0.01202366 0.039190002)
(-0.15436 -0.0097522549 0.039190002)
(-0.1551767 -0.007392535 0.039190002)
(-0.1557654 -0.0049658669 0.039190002)
(-0.1561207 -0.0024942281 0.039190002)
(-0.15623949 -4.2467019e-17 0.039190002)
(-0.1561207 0.0024942281 0.039190002)
(-0.1557654 0.0049658669 0.039190002)
(-0.1551767 0.007392535 0.039190002)
(-0.15436 0.0097522549 0.039190002)
(-0.15332261 0.01202366 0.039190002)
(-0.1520741 0.01418617 0.039190002)
(-0.15062571 0.01622021 0.039190002)
(-0.1489905 0.01810736 0.039190002)
(-0.14718319 0.019830531 0.039190002)
(-0.1452204 0.021374101 0.039190002)
(-0.1431198 0.02272412 0.039190002)
(-0.1409003 0.02386833 0.039190002)
(-0.1385821 0.024796391 0.039190002)
(-0.1361862 0.025499901 0.039190002)
(-0.1337343 0.025972471 0.039190002)
(-0.1312485 0.026209829 0.039190002)
(-0.1287515 0.026209829 0.039190002)
(-0.1262657 0.025972471 0.039190002)
(-0.1238138 0.025499901 0.039190002)
(-0.1214179 0.024796391 0.039190002)
(-0.1190997 0.02386833 0.039190002)
(-0.1168802 0.02272412 0.039190002)
(-0.1147796 0.021374101 0.039190002)
(-0.1128168 0.019830531 0.039190002)
(-0.1110095 0.01810736 0.039190002)
(-0.1093743 0.01622021 0.039190002)
(-0.1079259 0.01418617 0.039190002)
(-0.1066774 0.01202366 0.039190002)
(-0.10564 0.0097522549 0.039190002)
(-0.1048233 0.007392535 0.039190002)
(-0.1042346 0.0049658669 0.039190002)
(0.025 0 0.035)
(0.024875769 -0.0024891959 0.035)
(0.02450431 -0.004953654 0.035)
(0.02388932 -0.0073688789 0.035)
(0.02303691 -0.0097108698 0.035)
(0.02195554 -0.01195635 0.035)
(0.020655969 -0.014083 0.035)
(0.01915111 -0.01606969 0.035)
(0.017455921 -0.017896671 0.035)
(0.01558725 -0.01954579 0.035)
(0.01356366 -0.02100065 0.035)
(0.01140527 -0.0222468 0.035)
(0.0091335261 -0.02327184 0.035)
(0.0067710122 -0.02406561 0.035)
(0.0043412042 -0.02462019 0.035)
(0.0018682519 -0.02493009 0.035)
(-0.00062326732 -0.024992229 0.035)
(-0.0031085929 -0.02480598 0.035)
(-0.005563023 -0.0243732 0.035)
(-0.0079621663 -0.023698181 0.035)
(-0.01028218 -0.022787649 0.035)
(-0.0125 -0.02165064 0.035)
(-0.01459359 -0.020298449 0.035)
(-0.01654215 -0.01874453 0.035)
(-0.018326299 -0.01700432 0.035)
(-0.01992831 -0.01509511 0.035)
(-0.02133227 -0.01303588 0.035)
(-0.022524221 -0.01084709 0.035)
(-0.02349232 -0.0085505042 0.035)
(-0.02422693 -0.006168935 0.035)
(-0.024720769 -0.003726057 0.035)
(-0.02496892 -0.001246147 0.035)
(-0.02496892 0.001246147 0.035)
(-0.024720769 0.003726057 0.035)
(-0.02422693 0.006168935 0.035)
(-0.02349232 0.0085505042 0.035)
(-0.022524221 0.01084709 0.035)
(-0.02133227 0.01303588 0.035)
(-0.01992831 0.01509511 0.035)
(-0.018326299 0.01700432 0.035)
(-0.01654215 0.01874453 0.035)
(-0.01459359 0.020298449 0.035)
(-0.0125 0.02165064 0.035)
(-0.01028218 0.022787649 0.035)
(-0.0079621663 0.023698181 0.035)
(-0.005563023 0.0243732 0.035)
(-0.0031085929 0.02480598 0.035)
(-0.00062326732 0.024992229 0.035)
(0.0018682519 0.02493009 0.035)
(0.0043412042 0.02462019 0.035)
(0.0067710122 0.02406561 0.035)
(0.0091335261 0.02327184 0.035)
(0.01140527 0.0222468 0.035)
(0.01356366 0.02100065 0.035)
(0.01558725 0.01954579 0.035)
(0.017455921 0.017896671 0.035)
(0.01915111 0.01606969 0.035)
(0.020655969 0.014083 0.035)
(0.02195554 0.01195635 0.035)
(0.02303691 0.0097108698 0.035)
(0.02388932 0.0073688789 0.035)
(0.02450431 0.004953654 0.035)
(0.024875769 0.0024891959 0.035)
(0.02612073 0.0024942281 0.039190002)
(0.02623955 3.0657138e-23 0.039190002)
(0.02612073 -0.0024942281 0.039190002)
(0.025765371 -0.0049658669 0.039190002)
(0.025176659 -0.007392535 0.039190002)
(0.024359951 -0.0097522549 0.039190002)
(0.02332264 -0.01202366 0.039190002)
(0.022074111 -0.01418617 0.039190002)
(0.020625681 -0.01622021 0.039190002)
(0.01899045 -0.01810736 0.039190002)
(0.01718325 -0.019830531 0.039190002)
(0.01522043 -0.021374101 0.039190002)
(0.01311977 -0.02272412 0.039190002)
(0.0109003 -0.02386833 0.039190002)
(0.0085821152 -0.024796391 0.039190002)
(0.0061862082 -0.025499901 0.039190002)
(0.0037342771 -0.025972471 0.039190002)
(0.001248528 -0.026209829 0.039190002)
(-0.001248528 -0.026209829 0.039190002)
(-0.0037342771 -0.025972471 0.039190002)
(-0.0061862082 -0.025499901 0.039190002)
(-0.0085821152 -0.024796391 0.039190002)
(-0.0109003 -0.02386833 0.039190002)
(-0.01311977 -0.02272412 0.039190002)
(-0.01522043 -0.021374101 0.039190002)
(-0.01718325 -0.019830531 0.039190002)
(-0.01899045 -0.01810736 0.039190002)
(-0.020625681 -0.01622021 0.039190002)
(-0.022074111 -0.01418617 0.039190002)
(-0.02332264 -0.01202366 0.039190002)
(-0.024359951 -0.0097522549 0.039190002)
(-0.025176659 -0.007392535 0.039190002)
(-0.025765371 -0.0049658669 0.039190002)
(-0.02612073 -0.0024942281 0.039190002)
(-0.02623955 -4.2467019e-17 0.039190002)
(-0.02612073 0.0024942281 0.039190002)
(-0.025765371 0.0049658669 0.039190002)
(-0.025176659 0.007392535 0.039190002)
(-0.024359951 0.0097522549 0.039190002)
(-0.02332264 0.01202366 0.039190002)
(-0.022074111 0.01418617 0.039190002)
(-0.020625681 0.01622021 0.039190002)
(-0.01899045 0.01810736 0.039190002)
(-0.01718325 0.019830531 0.039190002)
(-0.01522043 0.021374101 0.039190002)
(-0.01311977 0.02272412 0.039190002)
(-0.0109003 0.02386833 0.039190002)
(-0.0085821152 0.024796391 0.039190002)
(-0.0061862082 0.025499901 0.039190002)
(-0.0037342771 0.025972471 0.039190002)
(-0.001248528 0.026209829 0.039190002)
(0.001248528 0.026209829 0.039190002)
(0.0037342771 0.025972471 0.039190002)
(0.0061862082 0.025499901 0.039190002)
(0.0085821152 0.024796391 0.039190002)
(0.0109003 0.02386833 0.039190002)
(0.01311977 0.02272412 0.039190002)
(0.01522043 0.021374101 0.039190002)
(0.01718325 0.019830531 0.039190002)
(0.01899045 0.01810736 0.039190002)
(0.020625681 0.01622021 0.039190002)
(0.022074111 0.01418617 0.039190002)
(0.02332264 0.01202366 0.039190002)
(0.024359951 0.0097522549 0.039190002)
(0.025176659 0.007392535 0.039190002)
(0.025765371 0.0049658669 0.039190002)
(0.090000004 0.064999998 0.035)
(0.089875773 0.062510803 0.035)
(0.089504309 0.060046349 0.035)
(0.088889323 0.05763112 0.035)
(0.08803691 0.055289131 0.035)
(0.08695554 0.053043649 0.035)
(0.085655972 0.050917 0.035)
(0.084151112 0.04893031 0.035)
(0.082455918 0.04710333 0.035)
(0.080587253 0.045454212 0.035)
(0.07856366 0.043999352 0.035)
(0.076405272 0.042753201 0.035)
(0.07413353 0.041728161 0.035)
(0.071771011 0.040934391 0.035)
(0.069341198 0.040379811 0.035)
(0.066868253 0.040069912 0.035)
(0.064376727 0.04000777 0.035)
(0.06189141 0.04019402 0.035)
(0.059436981 0.040626802 0.035)
(0.05703783 0.04130182 0.035)
(0.05471782 0.042212348 0.035)
(0.052499998 0.043349359 0.035)
(0.050406411 0.04470155 0.035)
(0.04845785 0.046255469 0.035)
(0.0466737 0.047995679 0.035)
(0.045071691 0.04990489 0.035)
(0.04366773 0.051964119 0.035)
(0.042475779 0.05415291 0.035)
(0.04150768 0.056449499 0.035)
(0.040773071 0.05883107 0.035)
(0.040279228 0.06127394 0.035)
(0.040031079 0.063753851 0.035)
(0.040031079 0.066246152 0.035)
(0.040279228 0.068726063 0.035)
(0.040773071 0.071168929 0.035)
(0.04150768 0.0735505 0.035)
(0.042475779 0.075847089 0.035)
(0.04366773 0.078035884 0.035)
(0.045071691 0.080095112 0.035)
(0.0466737 0.082004324 0.035)
(0.04845785 0.083744533 0.035)
(0.050406411 0.085298449 0.035)
(0.052499998 0.08665064 0.035)
(0.05471782 0.087787651 0.035)
(0.05703783 0.088698179 0.035)
(0.059436981 0.089373201 0.035)
(0.06189141 0.089805983 0.035)
(0.064376727 0.089992233 0.035)
(0.066868253 0.089930087 0.035)
(0.069341198 0.089620188 0.035)
(0.071771011 0.089065611 0.035)
(0.07413353 0.088271841 0.035)
(0.076405272 0.087246798 0.035)
(0.07856366 0.086000651 0.035)
(0.080587253 0.084545791 0.035)
(0.082455918 0.082896672 0.035)
(0.084151112 0.081069693 0.035)
(0.085655972 0.079083003 0.035)
(0.08695554 0.076956347 0.035)
(0.08803691 0.074710868 0.035)
(0.088889323 0.072368883 0.035)
(0.089504309 0.06995365 0.035)
(0.089875773 0.067489199 0.035)
(0.091120727 0.067494228 0.039190002)
(0.091239549 0.064999998 0.039190002)
(0.091120727 0.062505767 0.039190002)
(0.090765372 0.06003413 0.039190002)
(0.090176657 0.057607468 0.039190002)
(0.089359947 0.05524775 0.039190002)
(0.088322639 0.05297634 0.039190002)
(0.087074108 0.050813831 0.039190002)
(0.085625678 0.048779789 0.039190002)
(0.083990447 0.046892639 0.039190002)
(0.082183249 0.045169469 0.039190002)
(0.080220431 0.043625899 0.039190002)
(0.07811977 0.04227588 0.039190002)
(0.075900301 0.041131672 0.039190002)
(0.07358212 0.040203609 0.039190002)
(0.071186207 0.039500099 0.039190002)
(0.068734281 0.039027531 0.039190002)
(0.066248529 0.03879017 0.039190002)
(0.063751467 0.03879017 0.039190002)
(0.061265718 0.039027531 0.039190002)
(0.058813792 0.039500099 0.039190002)
(0.056417879 0.040203609 0.039190002)
(0.054099701 0.041131672 0.039190002)
(0.051880229 0.04227588 0.039190002)
(0.049779572 0.043625899 0.039190002)
(0.04781675 0.045169469 0.039190002)
(0.046009552 0.046892639 0.039190002)
(0.044374321 0.048779789 0.039190002)
(0.042925891 0.050813831 0.039190002)
(0.041677359 0.05297634 0.039190002)
(0.040640049 0.05524775 0.039190002)
(0.039823338 0.057607468 0.039190002)
(0.039234631 0.06003413 0.039190002)
(0.038879272 0.062505767 0.039190002)
(0.03876045 0.064999998 0.039190002)
(0.038879272 0.067494228 0.039190002)
(0.039234631 0.069965869 0.039190002)
(0.039823338 0.072392531 0.039190002)
(0.040640049 0.074752249 0.039190002)
(0.041677359 0.077023663 0.039190002)
(0.042925891 0.079186171 0.039190002)
(0.044374321 0.08122021 0.039190002)
(0.046009552 0.08310736 0.039190002)
(0.04781675 0.08483053 0.039190002)
(0.049779572 0.086374097 0.039190002)
(0.051880229 0.087724119 0.039190002)
(0.054099701 0.088868327 0.039190002)
(0.056417879 0.089796387 0.039190002)
(0.058813792 0.0904999 0.039190002)
(0.061265718 0.090972468 0.039190002)
(0.063751467 0.091209829 0.039190002)
(0.066248529 0.091209829 0.039190002)
(0.068734281 0.090972468 0.039190002)
(0.071186207 0.0904999 0.039190002)
(0.07358212 0.089796387 0.039190002)
(0.075900301 0.088868327 0.039190002)
(0.07811977 0.087724119 0.039190002)
(0.080220431 0.086374097 0.039190002)
(0.082183249 0.08483053 0.039190002)
(0.083990447 0.08310736 0.039190002)
(0.085625678 0.08122021 0.039190002)
(0.087074108 0.079186171 0.039190002)
(0.088322639 0.077023663 0.039190002)
(0.089359947 0.074752249 0.039190002)
(0.090176657 0.072392531 0.039190002)
(0.090765372 0.069965869 0.039190002)
(0.155 0.064999998 0.035)
(0.1548758 0.062510803 0.035)
(0.1545043 0.060046349 0.035)
(0.1538893 0.05763112 0.035)
(0.15303691 0.055289131 0.035)
(0.1519555 0.053043649 0.035)
(0.150656 0.050917 0.035)
(0.1491511 0.04893031 0.035)
(0.1474559 0.04710333 0.035)
(0.14558721 0.045454212 0.035)
(0.1435637 0.043999352 0.035)
(0.1414053 0.042753201 0.035)
(0.1391335 0.041728161 0.035)
(0.13677099 0.040934391 0.035)
(0.1343412 0.040379811 0.035)
(0.1318683 0.040069912 0.035)
(0.12937669 0.04000777 0.035)
(0.1268914 0.04019402 0.035)
(0.124437 0.040626802 0.035)
(0.1220378 0.04130182 0.035)
(0.1197178 0.042212348 0.035)
(0.1175 0.043349359 0.035)
(0.1154064 0.04470155 0.035)
(0.1134579 0.046255469 0.035)
(0.1116737 0.047995679 0.035)
(0.1100717 0.04990489 0.035)
(0.1086677 0.051964119 0.035)
(0.1074758 0.05415291 0.035)
(0.1065077 0.056449499 0.035)
(0.1057731 0.05883107 0.035)
(0.1052792 0.06127394 0.035)
(0.1050311 0.063753851 0.035)
(0.1050311 0.066246152 0.035)
(0.1052792 0.068726063 0.035)
(0.1057731 0.071168929 0.035)
(0.1065077 0.0735505 0.035)
(0.1074758 0.075847089 0.035)
(0.1086677 0.078035884 0.035)
(0.1100717 0.080095112 0.035)
(0.1116737 0.082004324 0.035)
(0.1134579 0.083744533 0.035)
(0.1154064 0.085298449 0.035)
(0.1175 0.08665064 0.035)
(0.1197178 0.087787651 0.035)
(0.1220378 0.088698179 0.035)
(0.124437 0.089373201 0.035)
(0.1268914 0.089805983 0.035)
(0.12937669 0.089992233 0.035)
(0.1318683 0.089930087 0.035)
(0.1343412 0.089620188 0.035)
(0.13677099 0.089065611 0.035)
(0.1391335 0.088271841 0.035)
(0.1414053 0.087246798 0.035)
(0.1435637 0.086000651 0.035)
(0.14558721 0.084545791 0.035)
(0.1474559 0.082896672 0.035)
(0.1491511 0.081069693 0.035)
(0.150656 0.079083003 0.035)
(0.1519555 0.076956347 0.035)
(0.15303691 0.074710868 0.035)
(0.1538893 0.072368883 0.035)
(0.1545043 0.06995365 0.035)
(0.1548758 0.067489199 0.035)
(0.1561207 0.067494228 0.039190002)
(0.15623949 0.064999998 0.039190002)
(0.1561207 0.062505767 0.039190002)
(0.1557654 0.06003413 0.039190002)
(0.1551767 0.057607468 0.039190002)
(0.15436 0.05524775 0.039190002)
(0.15332261 0.05297634 0.039190002)
(0.1520741 0.050813831 0.039190002)
(0.15062571 0.048779789 0.039190002)
(0.1489905 0.046892639 0.039190002)
(0.14718319 0.045169469 0.039190002)
(0.1452204 0.043625899 0.039190002)