/*--------------------------------*- C++ -*----------------------------------*\
| =========                 |                                                 |
| \\      /  F ield         | OpenFOAM: The Open Source CFD Toolbox           |
|  \\    /   O peration     | Version:  2406                                  |
|   \\  /    A nd           | Website:  www.openfoam.com                      |
|    \\/     M anipulation  |                                                 |
\*---------------------------------------------------------------------------*/
FoamFile
{
    version     2.0;
    format      ascii;
    arch        "LSB;label=32;scalar=64";
    class       extendedFeatureEdgeMesh;
    location    "constant/extendedFeatureEdgeMesh";
    object      trays.extendedFeatureEdgeMesh;
}
// * * * * * * * * * * * * * * * * * * * * * * * * * * * * * * * * * * * * * //

// points

568
(
(-0.16500001 -0.1 0.068000004)
(-0.16500001 -0.1 0.07)
(-0.16500001 0.1 0.068000004)
(-0.16500001 0.1 0.07)
(0.16500001 -0.1 0.068000004)
(0.16500001 -0.1 0.07)
(0.16500001 0.1 0.068000004)
(0.16500001 0.1 0.07)
(-0.16500001 -0.1 0.033)
(-0.16500001 -0.1 0.035)
(-0.16500001 0.1 0.033)
(-0.16500001 0.1 0.035)
(0.16500001 -0.1 0.033)
(0.16500001 -0.1 0.035)
(0.16500001 0.1 0.033)
(0.16500001 0.1 0.035)
(-0.16500001 -0.09259259 0.068000004)
(-0.16500001 -0.09259259 0.07)
(-0.16500001 0.09259259 0.068000004)
(-0.16500001 0.085185193 0.068000004)
(-0.16500001 0.077777781 0.068000004)
(-0.16500001 0.070370369 0.07)
(-0.16500001 0.077777781 0.07)
(-0.16500001 0.070370369 0.068000004)
(-0.16500001 0.062962957 0.068000004)
(-0.16500001 0.05555556 0.07)
(-0.16500001 0.062962957 0.07)
(-0.16500001 0.048148151 0.07)
(-0.16500001 0.04074074 0.07)
(-0.16500001 0.033333331 0.07)
(-0.16500001 0.025925931 0.07)
(-0.16500001 0.018518521 0.07)
(-0.16500001 0.01111111 0.07)
(-0.16500001 0.01111111 0.068000004)
(-0.16500001 0.0037037041 0.068000004)
(-0.16500001 -0.0037037041 0.068000004)
(-0.16500001 -0.01111111 0.068000004)
(-0.16500001 -0.018518521 0.07)
(-0.16500001 -0.01111111 0.07)
(-0.16500001 -0.018518521 0.068000004)
(-0.16500001 -0.025925931 0.068000004)
(-0.16500001 -0.033333331 0.07)
(-0.16500001 -0.025925931 0.07)
(-0.16500001 -0.033333331 0.068000004)
(-0.16500001 -0.04074074 0.068000004)
(-0.16500001 -0.048148151 0.07)
(-0.16500001 -0.04074074 0.07)
(-0.16500001 -0.05555556 0.07)
(-0.16500001 -0.062962957 0.07)
(-0.16500001 -0.062962957 0.068000004)
(-0.16500001 -0.070370369 0.068000004)
(-0.16500001 -0.077777781 0.068000004)
(-0.16500001 -0.085185193 0.068000004)
(-0.16500001 0.085185193 0.07)
(-0.16500001 0.05555556 0.068000004)
(-0.16500001 0.048148151 0.068000004)
(-0.16500001 0.04074074 0.068000004)
(-0.16500001 0.033333331 0.068000004)
(-0.16500001 0.025925931 0.068000004)
(-0.16500001 0.018518521 0.068000004)
(-0.16500001 0.0037037041 0.07)
(-0.16500001 -0.0037037041 0.07)
(-0.16500001 -0.048148151 0.068000004)
(-0.16500001 -0.05555556 0.068000004)
(-0.16500001 -0.077777781 0.07)
(-0.16500001 -0.070370369 0.07)
(-0.16500001 -0.085185193 0.07)
(-0.16500001 0.09259259 0.07)
(0.1575 -0.1 0.068000004)
(0.1575 -0.1 0.07)
(-0.1575 -0.1 0.068000004)
(-0.15000001 -0.1 0.068000004)
(-0.1425 -0.1 0.068000004)
(-0.13500001 -0.1 0.07)
(-0.1425 -0.1 0.07)
(-0.13500001 -0.1 0.068000004)
(-0.1275 -0.1 0.068000004)
(-0.12 -0.1 0.068000004)
(-0.1125 -0.1 0.068000004)
(-0.105 -0.1 0.068000004)
(-0.097499996 -0.1 0.068000004)
(-0.090000004 -0.1 0.068000004)
(-0.082500003 -0.1 0.068000004)
(-0.075000003 -0.1 0.068000004)
(-0.067500003 -0.1 0.068000004)
(-0.059999999 -0.1 0.068000004)
(-0.052499998 -0.1 0.068000004)
(-0.045000002 -0.1 0.068000004)
(-0.037500001 -0.1 0.068000004)
(-0.029999999 -0.1 0.068000004)
(-0.022500001 -0.1 0.068000004)
(-0.015 -0.1 0.068000004)
(-0.0074999998 -0.1 0.068000004)
(-8.3266727e-17 -0.1 0.068000004)
(0.0074999998 -0.1 0.068000004)
(0.015 -0.1 0.068000004)
(0.022500001 -0.1 0.068000004)
(0.029999999 -0.1 0.068000004)
(0.037500001 -0.1 0.068000004)
(0.045000002 -0.1 0.068000004)
(0.052499998 -0.1 0.068000004)
(0.059999999 -0.1 0.068000004)
(0.067500003 -0.1 0.068000004)
(0.075000003 -0.1 0.068000004)
(0.082500003 -0.1 0.068000004)
(0.090000004 -0.1 0.068000004)
(0.097499996 -0.1 0.068000004)
(0.105 -0.1 0.068000004)
(0.1125 -0.1 0.068000004)
(0.12 -0.1 0.068000004)
(0.1275 -0.1 0.068000004)
(0.13500001 -0.1 0.068000004)
(0.1425 -0.1 0.068000004)
(0.15000001 -0.1 0.068000004)
(-0.15000001 -0.1 0.07)
(-0.12 -0.1 0.07)
(-0.1275 -0.1 0.07)
(-0.105 -0.1 0.07)
(-0.1125 -0.1 0.07)
(-0.090000004 -0.1 0.07)
(-0.097499996 -0.1 0.07)
(-0.075000003 -0.1 0.07)
(-0.082500003 -0.1 0.07)
(-0.059999999 -0.1 0.07)
(-0.067500003 -0.1 0.07)
(-0.045000002 -0.1 0.07)
(-0.052499998 -0.1 0.07)
(-0.029999999 -0.1 0.07)
(-0.037500001 -0.1 0.07)
(-0.015 -0.1 0.07)
(-0.022500001 -0.1 0.07)
(8.3266727e-17 -0.1 0.07)
(-0.0074999998 -0.1 0.07)
(0.015 -0.1 0.07)
(0.0074999998 -0.1 0.07)
(0.029999999 -0.1 0.07)
(0.022500001 -0.1 0.07)
(0.045000002 -0.1 0.07)
(0.037500001 -0.1 0.07)
(0.059999999 -0.1 0.07)
(0.052499998 -0.1 0.07)
(0.075000003 -0.1 0.07)
(0.067500003 -0.1 0.07)
(0.090000004 -0.1 0.07)
(0.082500003 -0.1 0.07)
(0.105 -0.1 0.07)
(0.097499996 -0.1 0.07)
(0.12 -0.1 0.07)
(0.1125 -0.1 0.07)
(0.13500001 -0.1 0.07)
(0.1275 -0.1 0.07)
(0.15000001 -0.1 0.07)
(0.1425 -0.1 0.07)
(-0.1575 -0.1 0.07)
(0.16500001 0.09259259 0.068000004)
(0.16500001 0.09259259 0.07)
(0.16500001 -0.09259259 0.068000004)
(0.16500001 -0.085185193 0.068000004)
(0.16500001 -0.077777781 0.068000004)
(0.16500001 -0.070370369 0.07)
(0.16500001 -0.077777781 0.07)
(0.16500001 -0.070370369 0.068000004)
(0.16500001 -0.062962957 0.068000004)
(0.16500001 -0.05555556 0.07)
(0.16500001 -0.062962957 0.07)
(0.16500001 -0.048148151 0.07)
(0.16500001 -0.04074074 0.07)
(0.16500001 -0.033333331 0.07)
(0.16500001 -0.025925931 0.07)
(0.16500001 -0.018518521 0.07)
(0.16500001 -0.01111111 0.07)
(0.16500001 -0.0037037041 0.07)
(0.16500001 0.0037037041 0.07)
(0.16500001 0.01111111 0.07)
(0.16500001 0.018518521 0.07)
(0.16500001 0.025925931 0.07)
(0.16500001 0.033333331 0.07)
(0.16500001 0.04074074 0.07)
(0.16500001 0.048148151 0.07)
(0.16500001 0.05555556 0.07)
(0.16500001 0.062962957 0.07)
(0.16500001 0.062962957 0.068000004)
(0.16500001 0.070370369 0.068000004)
(0.16500001 0.077777781 0.068000004)
(0.16500001 0.085185193 0.068000004)
(0.16500001 -0.085185193 0.07)
(0.16500001 -0.05555556 0.068000004)
(0.16500001 -0.048148151 0.068000004)
(0.16500001 -0.04074074 0.068000004)
(0.16500001 -0.033333331 0.068000004)
(0.16500001 -0.025925931 0.068000004)
(0.16500001 -0.018518521 0.068000004)
(0.16500001 -0.01111111 0.068000004)
(0.16500001 -0.0037037041 0.068000004)
(0.16500001 0.0037037041 0.068000004)
(0.16500001 0.01111111 0.068000004)
(0.16500001 0.018518521 0.068000004)
(0.16500001 0.025925931 0.068000004)
(0.16500001 0.033333331 0.068000004)
(0.16500001 0.04074074 0.068000004)
(0.16500001 0.048148151 0.068000004)
(0.16500001 0.05555556 0.068000004)
(0.16500001 0.077777781 0.07)
(0.16500001 0.070370369 0.07)
(0.16500001 0.085185193 0.07)
(0.16500001 -0.09259259 0.07)
(-0.1575 0.1 0.068000004)
(-0.1575 0.1 0.07)
(0.1575 0.1 0.068000004)
(0.15000001 0.1 0.068000004)
(0.1425 0.1 0.068000004)
(0.13500001 0.1 0.07)
(0.1425 0.1 0.07)
(0.13500001 0.1 0.068000004)
(0.1275 0.1 0.068000004)
(0.12 0.1 0.068000004)
(0.1125 0.1 0.068000004)
(0.105 0.1 0.068000004)
(0.097499996 0.1 0.068000004)
(0.090000004 0.1 0.068000004)
(0.082500003 0.1 0.068000004)
(0.075000003 0.1 0.068000004)
(0.067500003 0.1 0.07)
(0.075000003 0.1 0.07)
(0.067500003 0.1 0.068000004)
(0.059999999 0.1 0.068000004)
(0.052499998 0.1 0.07)
(0.059999999 0.1 0.07)
(0.052499998 0.1 0.068000004)
(0.045000002 0.1 0.068000004)
(0.037500001 0.1 0.068000004)
(0.029999999 0.1 0.068000004)
(0.022500001 0.1 0.068000004)
(0.015 0.1 0.068000004)
(0.0074999998 0.1 0.068000004)
(8.3266727e-17 0.1 0.068000004)
(-0.0074999998 0.1 0.068000004)
(-0.015 0.1 0.068000004)
(-0.022500001 0.1 0.07)
(-0.015 0.1 0.07)
(-0.022500001 0.1 0.068000004)
(-0.029999999 0.1 0.068000004)
(-0.037500001 0.1 0.07)
(-0.029999999 0.1 0.07)
(-0.037500001 0.1 0.068000004)
(-0.045000002 0.1 0.068000004)
(-0.052499998 0.1 0.068000004)
(-0.059999999 0.1 0.068000004)
(-0.067500003 0.1 0.068000004)
(-0.075000003 0.1 0.068000004)
(-0.082500003 0.1 0.068000004)
(-0.090000004 0.1 0.068000004)
(-0.097499996 0.1 0.068000004)
(-0.105 0.1 0.07)
(-0.097499996 0.1 0.07)
(-0.105 0.1 0.068000004)
(-0.1125 0.1 0.068000004)
(-0.12 0.1 0.07)
(-0.1125 0.1 0.07)
(-0.12 0.1 0.068000004)
(-0.1275 0.1 0.068000004)
(-0.13500001 0.1 0.068000004)
(-0.1425 0.1 0.068000004)
(-0.15000001 0.1 0.068000004)
(0.15000001 0.1 0.07)
(0.12 0.1 0.07)
(0.1275 0.1 0.07)
(0.105 0.1 0.07)
(0.1125 0.1 0.07)
(0.090000004 0.1 0.07)
(0.097499996 0.1 0.07)
(0.082500003 0.1 0.07)
(0.037500001 0.1 0.07)
(0.045000002 0.1 0.07)
(0.022500001 0.1 0.07)
(0.029999999 0.1 0.07)
(0.0074999998 0.1 0.07)
(0.015 0.1 0.07)
(-8.3266727e-17 0.1 0.07)
(-0.0074999998 0.1 0.07)
(-0.052499998 0.1 0.07)
(-0.045000002 0.1 0.07)
(-0.067500003 0.1 0.07)
(-0.059999999 0.1 0.07)
(-0.082500003 0.1 0.07)
(-0.075000003 0.1 0.07)
(-0.090000004 0.1 0.07)
(-0.13500001 0.1 0.07)
(-0.1275 0.1 0.07)
(-0.15000001 0.1 0.07)
(-0.1425 0.1 0.07)
(0.1575 0.1 0.07)
(-0.16500001 -0.09259259 0.033)
(-0.16500001 -0.09259259 0.035)
(-0.16500001 0.09259259 0.033)
(-0.16500001 0.085185193 0.033)
(-0.16500001 0.077777781 0.033)
(-0.16500001 0.070370369 0.035)
(-0.16500001 0.077777781 0.035)
(-0.16500001 0.070370369 0.033)
(-0.16500001 0.062962957 0.033)
(-0.16500001 0.05555556 0.035)
(-0.16500001 0.062962957 0.035)
(-0.16500001 0.048148151 0.035)
(-0.16500001 0.04074074 0.035)
(-0.16500001 0.033333331 0.035)
(-0.16500001 0.025925931 0.035)
(-0.16500001 0.018518521 0.035)
(-0.16500001 0.01111111 0.035)
(-0.16500001 0.01111111 0.033)
(-0.16500001 0.0037037041 0.033)
(-0.16500001 -0.0037037041 0.033)
(-0.16500001 -0.01111111 0.033)
(-0.16500001 -0.018518521 0.035)
(-0.16500001 -0.01111111 0.035)
(-0.16500001 -0.018518521 0.033)
(-0.16500001 -0.025925931 0.033)
(-0.16500001 -0.033333331 0.035)
(-0.16500001 -0.025925931 0.035)
(-0.16500001 -0.033333331 0.033)
(-0.16500001 -0.04074074 0.033)
(-0.16500001 -0.048148151 0.035)
(-0.16500001 -0.04074074 0.035)
(-0.16500001 -0.05555556 0.035)
(-0.16500001 -0.062962957 0.035)
(-0.16500001 -0.062962957 0.033)
(-0.16500001 -0.070370369 0.033)
(-0.16500001 -0.077777781 0.033)
(-0.16500001 -0.085185193 0.033)
(-0.16500001 0.085185193 0.035)
(-0.16500001 0.05555556 0.033)
(-0.16500001 0.048148151 0.033)
(-0.16500001 0.04074074 0.033)
(-0.16500001 0.033333331 0.033)
(-0.16500001 0.025925931 0.033)
(-0.16500001 0.018518521 0.033)
(-0.16500001 0.0037037041 0.035)
(-0.16500001 -0.0037037041 0.035)
(-0.16500001 -0.048148151 0.033)
(-0.16500001 -0.05555556 0.033)
(-0.16500001 -0.077777781 0.035)
(-0.16500001 -0.070370369 0.035)
(-0.16500001 -0.085185193 0.035)
(-0.16500001 0.09259259 0.035)
(0.1575 -0.1 0.033)
(0.1575 -0.1 0.035)
(-0.1575 -0.1 0.033)
(-0.15000001 -0.1 0.033)
(-0.1425 -0.1 0.033)
(-0.13500001 -0.1 0.035)
(-0.1425 -0.1 0.035)
(-0.13500001 -0.1 0.033)
(-0.1275 -0.1 0.033)
(-0.12 -0.1 0.033)
(-0.1125 -0.1 0.033)
(-0.105 -0.1 0.033)
(-0.097499996 -0.1 0.033)
(-0.090000004 -0.1 0.033)
(-0.082500003 -0.1 0.033)
(-0.075000003 -0.1 0.033)
(-0.067500003 -0.1 0.033)
(-0.059999999 -0.1 0.033)
(-0.052499998 -0.1 0.033)
(-0.045000002 -0.1 0.033)
(-0.037500001 -0.1 0.033)
(-0.029999999 -0.1 0.033)
(-0.022500001 -0.1 0.033)
(-0.015 -0.1 0.033)
(-0.0074999998 -0.1 0.033)
(-8.3266727e-17 -0.1 0.033)
(0.0074999998 -0.1 0.033)
(0.015 -0.1 0.033)
(0.022500001 -0.1 0.033)
(0.029999999 -0.1 0.033)
(0.037500001 -0.1 0.033)
(0.045000002 -0.1 0.033)
(0.052499998 -0.1 0.033)
(0.059999999 -0.1 0.033)
(0.067500003 -0.1 0.033)
(0.075000003 -0.1 0.033)
(0.082500003 -0.1 0.033)
(0.090000004 -0.1 0.033)
(0.097499996 -0.1 0.033)
(0.105 -0.1 0.033)
(0.1125 -0.1 0.033)
(0.12 -0.1 0.033)
(0.1275 -0.1 0.033)
(0.13500001 -0.1 0.033)
(0.1425 -0.1 0.033)
(0.15000001 -0.1 0.033)
(-0.15000001 -0.1 0.035)
(-0.12 -0.1 0.035)
(-0.1275 -0.1 0.035)
(-0.105 -0.1 0.035)
(-0.1125 -0.1 0.035)
(-0.090000004 -0.1 0.035)
(-0.097499996 -0.1 0.035)
(-0.075000003 -0.1 0.035)
(-0.082500003 -0.1 0.035)
(-0.059999999 -0.1 0.035)
(-0.067500003 -0.1 0.035)
(-0.045000002 -0.1 0.035)
(-0.052499998 -0.1 0.035)
(-0.029999999 -0.1 0.035)
(-0.037500001 -0.1 0.035)
(-0.015 -0.1 0.035)
(-0.022500001 -0.1 0.035)
(8.3266727e-17 -0.1 0.035)
(-0.0074999998 -0.1 0.035)
(0.015 -0.1 0.035)
(0.0074999998 -0.1 0.035)
(0.029999999 -0.1 0.035)
(0.022500001 -0.1 0.035)
(0.045000002 -0.1 0.035)
(0.037500001 -0.1 0.035)
(0.059999999 -0.1 0.035)
(0.052499998 -0.1 0.035)
(0.075000003 -0.1 0.035)
(0.067500003 -0.1 0.035)
(0.090000004 -0.1 0.035)
(0.082500003 -0.1 0.035)
(0.105 -0.1 0.035)
(0.097499996 -0.1 0.035)
(0.12 -0.1 0.035)
(0.1125 -0.1 0.035)
(0.13500001 -0.1 0.035)
(0.1275 -0.1 0.035)
(0.15000001 -0.1 0.035)
(0.1425 -0.1 0.035)
(-0.1575 -0.1 0.035)
(0.16500001 0.09259259 0.033)
(0.16500001 0.09259259 0.035)
(0.16500001 -0.09259259 0.033)
(0.16500001 -0.085185193 0.033)
(0.16500001 -0.077777781 0.033)
(0.16500001 -0.070370369 0.035)
(0.16500001 -0.077777781 0.035)
(0.16500001 -0.070370369 0.033)
(0.16500001 -0.062962957 0.033)
(0.16500001 -0.05555556 0.035)
(0.16500001 -0.062962957 0.035)
(0.16500001 -0.048148151 0.035)
(0.16500001 -0.04074074 0.035)
(0.16500001 -0.033333331 0.035)
(0.16500001 -0.025925931 0.035)
(0.16500001 -0.018518521 0.035)
(0.16500001 -0.01111111 0.035)
(0.16500001 -0.0037037041 0.035)
(0.16500001 0.0037037041 0.035)
(0.16500001 0.01111111 0.035)
(0.16500001 0.018518521 0.035)
(0.16500001 0.025925931 0.035)
(0.16500001 0.033333331 0.035)
(0.16500001 0.04074074 0.035)
(0.16500001 0.048148151 0.035)
(0.16500001 0.05555556 0.035)
(0.16500001 0.062962957 0.035)
(0.16500001 0.062962957 0.033)
(0.16500001 0.070370369 0.033)
(0.16500001 0.077777781 0.033)
(0.16500001 0.085185193 0.033)
(0.16500001 -0.085185193 0.035)
(0.16500001 -0.05555556 0.033)
(0.16500001 -0.048148151 0.033)
(0.16500001 -0.04074074 0.033)
(0.16500001 -0.033333331 0.033)
(0.16500001 -0.025925931 0.033)
(0.16500001 -0.018518521 0.033)
(0.16500001 -0.01111111 0.033)
(0.16500001 -0.0037037041 0.033)
(0.16500001 0.0037037041 0.033)
(0.16500001 0.01111111 0.033)
(0.16500001 0.018518521 0.033)
(0.16500001 0.025925931 0.033)
(0.16500001 0.033333331 0.033)
(0.16500001 0.04074074 0.033)
(0.16500001 0.048148151 0.033)
(0.16500001 0.05555556 0.033)
(0.16500001 0.077777781 0.035)
(0.16500001 0.070370369 0.035)
(0.16500001 0.085185193 0.035)
(0.16500001 -0.09259259 0.035)
(-0.1575 0.1 0.033)
(-0.1575 0.1 0.035)
(0.1575 0.1 0.033)
(0.15000001 0.1 0.033)
(0.1425 0.1 0.033)
(0.13500001 0.1 0.035)
(0.1425 0.1 0.035)
(0.13500001 0.1 0.033)
(0.1275 0.1 0.033)
(0.12 0.1 0.033)
(0.1125 0.1 0.033)
(0.105 0.1 0.033)
(0.097499996 0.1 0.033)
(0.090000004 0.1 0.033)
(0.082500003 0.1 0.033)
(0.075000003 0.1 0.033)
(0.067500003 0.1 0.035)
(0.075000003 0.1 0.035)
(0.067500003 0.1 0.033)
(0.059999999 0.1 0.033)
(0.052499998 0.1 0.035)
(0.059999999 0.1 0.035)
(0.052499998 0.1 0.033)
(0.045000002 0.1 0.033)
(0.037500001 0.1 0.033)
(0.029999999 0.1 0.033)
(0.022500001 0.1 0.033)
(0.015 0.1 0.033)
(0.0074999998 0.1 0.033)
(8.3266727e-17 0.1 0.033)
(-0.0074999998 0.1 0.033)
(-0.015 0.1 0.033)
(-0.022500001 0.1 0.035)
(-0.015 0.1 0.035)
(-0.022500001 0.1 0.033)
(-0.029999999 0.1 0.033)
(-0.037500001 0.1 0.035)
(-0.029999999 0.1 0.035)
(-0.037500001 0.1 0.033)
(-0.045000002 0.1 0.033)
(-0.052499998 0.1 0.033)
(-0.059999999 0.1 0.033)
(-0.067500003 0.1 0.033)
(-0.075000003 0.1 0.033)
(-0.082500003 0.1 0.033)
(-0.090000004 0.1 0.033)
(-0.097499996 0.1 0.033)
(-0.105 0.1 0.035)
(-0.097499996 0.1 0.035)
(-0.105 0.1 0.033)
(-0.1125 0.1 0.033)
(-0.12 0.1 0.035)
(-0.1125 0.1 0.035)
(-0.12 0.1 0.033)
(-0.1275 0.1 0.033)
(-0.13500001 0.1 0.033)
(-0.1425 0.1 0.033)
(-0.15000001 0.1 0.033)
(0.15000001 0.1 0.035)
(0.12 0.1 0.035)
(0.1275 0.1 0.035)
(0.105 0.1 0.035)
(0.1125 0.1 0.035)
(0.090000004 0.1 0.035)
(0.097499996 0.1 0.035)
(0.082500003 0.1 0.035)
(0.037500001 0.1 0.035)
(0.045000002 0.1 0.035)
(0.022500001 0.1 0.035)
(0.029999999 0.1 0.035)
(0.0074999998 0.1 0.035)
(0.015 0.1 0.035)
(-8.3266727e-17 0.1 0.035)
(-0.0074999998 0.1 0.035)
(-0.052499998 0.1 0.035)
(-0.045000002 0.1 0.035)
(-0.067500003 0.1 0.035)
(-0.059999999 0.1 0.035)
(-0.082500003 0.1 0.035)
(-0.075000003 0.1 0.035)
(-0.090000004 0.1 0.035)
(-0.13500001 0.1 0.035)
(-0.1275 0.1 0.035)
(-0.15000001 0.1 0.035)
(-0.1425 0.1 0.035)
(0.1575 0.1 0.035)
)

// edges

576
(
(0 1)
(16 0)
(1 17)
(18 19)
(19 20)
(21 22)
(23 24)
(25 26)
(27 25)
(28 27)
(29 28)
(30 29)
(31 30)
(32 31)
(33 34)
(34 35)
(35 36)
(37 38)
(39 40)
(41 42)
(43 44)
(45 46)
(47 45)
(48 47)
(49 50)
(50 51)
(51 52)
(52 16)
(2 18)
(22 53)
(24 54)
(26 21)
(55 56)
(54 55)
(57 58)
(56 57)
(59 33)
(58 59)
(60 32)
(61 60)
(36 39)
(42 37)
(44 62)
(46 41)
(63 49)
(62 63)
(64 65)
(65 48)
(17 66)
(66 64)
(20 23)
(53 67)
(40 43)
(38 61)
(3 2)
(67 3)
(4 5)
(68 4)
(5 69)
(70 71)
(71 72)
(73 74)
(75 76)
(76 77)
(77 78)
(78 79)
(79 80)
(80 81)
(81 82)
(82 83)
(83 84)
(84 85)
(85 86)
(86 87)
(87 88)
(88 89)
(89 90)
(90 91)
(91 92)
(92 93)
(93 94)
(94 95)
(95 96)
(96 97)
(97 98)
(98 99)
(99 100)
(100 101)
(101 102)
(102 103)
(103 104)
(104 105)
(105 106)
(106 107)
(107 108)
(108 109)
(109 110)
(110 111)
(111 112)
(112 113)
(113 68)
(74 114)
(115 116)
(116 73)
(117 118)
(118 115)
(119 120)
(120 117)
(121 122)
(122 119)
(123 124)
(124 121)
(125 126)
(126 123)
(127 128)
(128 125)
(129 130)
(130 127)
(131 132)
(132 129)
(133 134)
(134 131)
(135 136)
(136 133)
(137 138)
(138 135)
(139 140)
(140 137)
(141 142)
(142 139)
(143 144)
(144 141)
(145 146)
(146 143)
(147 148)
(148 145)
(149 150)
(150 147)
(151 152)
(152 149)
(72 75)
(69 151)
(114 153)
(153 1)
(0 70)
(6 7)
(154 6)
(7 155)
(156 157)
(157 158)
(159 160)
(161 162)
(163 164)
(165 163)
(166 165)
(167 166)
(168 167)
(169 168)
(170 169)
(171 170)
(172 171)
(173 172)
(174 173)
(175 174)
(176 175)
(177 176)
(178 177)
(179 178)
(180 179)
(181 182)
(182 183)
(183 184)
(184 154)
(4 156)
(160 185)
(162 186)
(164 159)
(187 188)
(186 187)
(189 190)
(188 189)
(191 192)
(190 191)
(193 194)
(192 193)
(195 196)
(194 195)
(197 198)
(196 197)
(199 200)
(198 199)
(201 181)
(200 201)
(202 203)
(203 180)
(155 204)
(204 202)
(158 161)
(185 205)
(205 5)
(206 2)
(3 207)
(208 209)
(209 210)
(211 212)
(213 214)
(214 215)
(215 216)
(216 217)
(217 218)
(218 219)
(219 220)
(220 221)
(222 223)
(224 225)
(226 227)
(228 229)
(229 230)
(230 231)
(231 232)
(232 233)
(233 234)
(234 235)
(235 236)
(236 237)
(238 239)
(240 241)
(242 243)
(244 245)
(245 246)
(246 247)
(247 248)
(248 249)
(249 250)
(250 251)
(251 252)
(253 254)
(255 256)
(257 258)
(259 260)
(260 261)
(261 262)
(262 263)
(263 206)
(212 264)
(265 266)
(266 211)
(267 268)
(268 265)
(269 270)
(270 267)
(271 269)
(223 271)
(221 224)
(227 222)
(272 273)
(273 226)
(274 275)
(275 272)
(276 277)
(277 274)
(278 276)
(279 278)
(237 240)
(243 238)
(280 281)
(281 242)
(282 283)
(283 280)
(284 285)
(285 282)
(286 284)
(254 286)
(252 255)
(258 253)
(287 288)
(288 257)
(289 290)
(290 287)
(225 228)
(256 259)
(210 213)
(207 289)
(264 291)
(291 7)
(6 208)
(241 244)
(239 279)
(8 9)
(292 8)
(9 293)
(294 295)
(295 296)
(297 298)
(299 300)
(301 302)
(303 301)
(304 303)
(305 304)
(306 305)
(307 306)
(308 307)
(309 310)
(310 311)
(311 312)
(313 314)
(315 316)
(317 318)
(319 320)
(321 322)
(323 321)
(324 323)
(325 326)
(326 327)
(327 328)
(328 292)
(10 294)
(298 329)
(300 330)
(302 297)
(331 332)
(330 331)
(333 334)
(332 333)
(335 309)
(334 335)
(336 308)
(337 336)
(312 315)
(318 313)
(320 338)
(322 317)
(339 325)
(338 339)
(340 341)
(341 324)
(293 342)
(342 340)
(296 299)
(329 343)
(316 319)
(314 337)
(11 10)
(343 11)
(12 13)
(344 12)
(13 345)
(346 347)
(347 348)
(349 350)
(351 352)
(352 353)
(353 354)
(354 355)
(355 356)
(356 357)
(357 358)
(358 359)
(359 360)
(360 361)
(361 362)
(362 363)
(363 364)
(364 365)
(365 366)
(366 367)
(367 368)
(368 369)
(369 370)
(370 371)
(371 372)
(372 373)
(373 374)
(374 375)
(375 376)
(376 377)
(377 378)
(378 379)
(379 380)
(380 381)
(381 382)
(382 383)
(383 384)
(384 385)
(385 386)
(386 387)
(387 388)
(388 389)
(389 344)
(350 390)
(391 392)
(392 349)
(393 394)
(394 391)
(395 396)
(396 393)
(397 398)
(398 395)
(399 400)
(400 397)
(401 402)
(402 399)
(403 404)
(404 401)
(405 406)
(406 403)
(407 408)
(408 405)
(409 410)
(410 407)
(411 412)
(412 409)
(413 414)
(414 411)
(415 416)
(416 413)
(417 418)
(418 415)
(419 420)
(420 417)
(421 422)
(422 419)
(423 424)
(424 421)
(425 426)
(426 423)
(427 428)
(428 425)
(348 351)
(345 427)
(390 429)
(429 9)
(8 346)
(14 15)
(430 14)
(15 431)
(432 433)
(433 434)
(435 436)
(437 438)
(439 440)
(441 439)
(442 441)
(443 442)
(444 443)
(445 444)
(446 445)
(447 446)
(448 447)
(449 448)
(450 449)
(451 450)
(452 451)
(453 452)
(454 453)
(455 454)
(456 455)
(457 458)
(458 459)
(459 460)
(460 430)
(12 432)
(436 461)
(438 462)
(440 435)
(463 464)
(462 463)
(465 466)
(464 465)
(467 468)
(466 467)
(469 470)
(468 469)
(471 472)
(470 471)
(473 474)
(472 473)
(475 476)
(474 475)
(477 457)
(476 477)
(478 479)
(479 456)
(431 480)
(480 478)
(434 437)
(461 481)
(481 13)
(482 10)
(11 483)
(484 485)
(485 486)
(487 488)
(489 490)
(490 491)
(491 492)
(492 493)
(493 494)
(494 495)
(495 496)
(496 497)
(498 499)
(500 501)
(502 503)
(504 505)
(505 506)
(506 507)
(507 508)
(508 509)
(509 510)
(510 511)
(511 512)
(512 513)
(514 515)
(516 517)
(518 519)
(520 521)
(521 522)
(522 523)
(523 524)
(524 525)
(525 526)
(526 527)
(527 528)
(529 530)
(531 532)
(533 534)
(535 536)
(536 537)
(537 538)
(538 539)
(539 482)
(488 540)
(541 542)
(542 487)
(543 544)
(544 541)
(545 546)
(546 543)
(547 545)
(499 547)
(497 500)
(503 498)
(548 549)
(549 502)
(550 551)
(551 548)
(552 553)
(553 550)
(554 552)
(555 554)
(513 516)
(519 514)
(556 557)
(557 518)
(558 559)
(559 556)
(560 561)
(561 558)
(562 560)
(530 562)
(528 531)
(534 529)
(563 564)
(564 533)
(565 566)
(566 563)
(501 504)
(532 535)
(486 489)
(483 565)
(540 567)
(567 15)
(14 484)
(517 520)
(515 555)
)

// concaveStart mixedStart nonFeatureStart
16 16 16
// internalStart flatStart openStart multipleStart
576 576 576 576
// normals

1136
(
(-1 0 0)
(0 -1 0)
(-0 0 -1)
(-1 -0 -0)
(0 0 1)
(-1 0 0)
(0 0 -1)
(-1 0 0)
(0 0 -1)
(-1 -0 -0)
(0 0 1)
(-1 0 0)
(0 0 -1)
(-1 0 0)
(0 0 1)
(-1 0 0)
(0 0 1)
(-1 0 0)
(0 0 1)
(-1 0 0)
(0 0 1)
(-1 0 0)
(0 0 1)
(-1 0 0)
(0 0 1)
(-1 0 0)
(0 0 1)
(-1 0 0)
(0 0 -1)
(-1 0 0)
(0 0 -1)
(-1 0 0)
(0 0 -1)
(-1 0 0)
(0 0 1)
(-1 0 0)
(0 0 -1)
(-1 0 0)
(0 0 1)
(-1 0 0)
(0 0 -1)
(-1 0 0)
(0 0 1)
(-1 0 0)
(0 0 1)
(-1 0 0)
(0 0 1)
(-1 0 0)
(0 0 -1)
(-1 0 0)
(0 0 -1)
(-1 0 0)
(0 0 -1)
(-1 0 0)
(0 0 -1)
(-1 0 0)
(0 0 -1)
(-1 -0 -0)
(0 0 1)
(-1 0 0)
(0 0 -1)
(-1 -0 -0)
(0 0 1)
(-1 0 0)
(0 0 -1)
(-1 0 0)
(0 0 -1)
(-1 0 0)
(0 0 -1)
(-1 0 0)
(0 0 -1)
(-1 0 0)
(0 0 -1)
(-1 0 0)
(0 0 -1)
(-1 0 0)
(0 0 1)
(-1 -0 0)
(0 0 1)
(-1 0 0)
(0 0 -1)
(-1 -0 0)
(0 0 1)
(-1 0 0)
(0 0 -1)
(-1 -0 0)
(0 0 1)
(-1 0 0)
(0 0 -1)
(-1 0 0)
(0 0 -1)
(-1 0 0)
(0 0 1)
(-1 -0 -0)
(0 0 1)
(-1 0 0)
(0 0 1)
(-1 -0 -0)
(0 0 1)
(-1 0 0)
(0 0 -1)
(-1 0 0)
(0 0 1)
(-1 0 0)
(0 0 -1)
(-1 0 0)
(0 0 1)
(-1 -0 -0)
(0 1 0)
(0 0 1)
(0 -1 0)
(1 -0 0)
(0 0 -1)
(0 -1 0)
(0 0 1)
(0 -1 0)
(0 0 -1)
(0 -1 0)
(0 0 -1)
(0 -1 0)
(0 0 1)
(0 -1 0)
(0 0 -1)
(0 -1 0)
(0 0 -1)
(0 -1 0)
(0 0 -1)
(0 -1 0)
(0 0 -1)
(0 -1 0)
(0 0 -1)
(0 -1 0)
(0 0 -1)
(0 -1 0)
(0 0 -1)
(0 -1 0)
(0 0 -1)
(0 -1 0)
(0 0 -1)
(0 -1 0)
(0 0 -1)
(0 -1 0)
(0 0 -1)
(0 -1 0)
(0 0 -1)
(0 -1 0)
(0 0 -1)
(0 -1 0)
(0 0 -1)
(0 -1 0)
(0 0 -1)
(0 -1 0)
(0 0 -1)
(0 -1 0)
(0 0 -1)
(0 -1 0)
(0 0 -1)
(0 -1 0)
(0 0 -1)
(0 -1 0)
(0 0 -1)
(0 -1 0)
(0 0 -1)
(0 -1 0)
(0 0 -1)
(0 -1 0)
(0 0 -1)
(0 -1 0)
(0 0 -1)
(0 -1 0)
(0 0 -1)
(0 -1 0)
(0 0 -1)
(0 -1 0)
(0 0 -1)
(0 -1 0)
(0 0 -1)
(0 -1 0)
(0 0 -1)
(0 -1 0)
(0 0 -1)
(0 -1 0)
(0 0 -1)
(0 -1 0)
(0 0 -1)
(0 -1 0)
(0 0 -1)
(0 -1 0)
(0 0 -1)
(0 -1 0)
(0 0 -1)
(0 -1 0)
(0 0 -1)
(0 -1 0)
(0 0 -1)
(0 -1 0)
(0 0 -1)
(0 -1 0)
(0 0 -1)
(0 -1 0)
(0 0 1)
(0 -1 0)
(0 0 1)
(0 -1 0)
(0 0 1)
(0 -1 0)
(0 0 1)
(0 -1 0)
(0 0 1)
(0 -1 0)
(0 0 1)
(0 -1 0)
(0 0 1)
(0 -1 0)
(0 0 1)
(0 -1 0)
(0 0 1)
(0 -1 0)
(0 0 1)
(0 -1 0)
(0 0 1)
(0 -1 0)
(0 0 1)
(0 -1 0)
(0 0 1)
(0 -1 0)
(0 0 1)
(0 -1 0)
(0 0 1)
(0 -1 0)
(0 0 1)
(0 -1 0)
(0 0 1)
(0 -1 0)
(0 0 1)
(0 -1 0)
(0 0 1)
(0 -1 0)
(0 0 1)
(0 -1 -0)
(0 0 1)
(0 -1 0)
(0 0 1)
(0 -1 0)
(0 0 1)
(0 -1 0)
(0 0 1)
(0 -1 0)
(0 0 1)
(0 -1 0)
(0 0 1)
(0 -1 0)
(0 0 1)
(0 -1 0)
(0 0 1)
(0 -1 0)
(0 0 1)
(0 -1 0)
(0 0 1)
(0 -1 0)
(0 0 1)
(0 -1 0)
(0 0 1)
(0 -1 0)
(0 0 1)
(0 -1 0)
(0 0 1)
(0 -1 0)
(0 0 1)
(0 -1 0)
(0 0 1)
(0 -1 0)
(0 0 1)
(0 -1 0)
(0 0 1)
(0 -1 0)
(0 0 1)
(0 -1 0)
(0 0 -1)
(0 -1 0)
(0 0 1)
(0 -1 0)
(0 0 1)
(0 0 1)
(0 -1 0)
(0 0 -1)
(1 0 -0)
(0 1 0)
(0 -0 -1)
(1 -0 0)
(0 -0 1)
(1 0 0)
(0 -0 -1)
(1 0 -0)
(0 -0 -1)
(1 -0 0)
(0 -0 1)
(1 0 -0)
(0 -0 -1)
(1 0 0)
(0 -0 1)
(1 0 0)
(0 -0 1)
(1 0 0)
(0 -0 1)
(1 0 0)
(0 -0 1)
(1 0 0)
(0 -0 1)
(1 0 0)
(0 -0 1)
(1 0 0)
(0 -0 1)
(1 0 0)
(0 -0 1)
(1 0 0)
(0 -0 1)
(1 0 0)
(0 -0 1)
(1 0 0)
(0 -0 1)
(1 0 0)
(0 -0 1)
(1 0 0)
(0 -0 1)
(1 0 0)
(0 -0 1)
(1 0 0)
(0 -0 1)
(1 0 0)
(0 -0 1)
(1 0 0)
(0 -0 1)
(1 0 -0)
(0 -0 -1)
(1 0 0)
(0 -0 -1)
(1 0 -0)
(0 -0 -1)
(1 0 0)
(0 -0 -1)
(1 0 -0)
(0 0 -1)
(1 -0 0)
(0 -0 1)
(1 0 0)
(0 -0 -1)
(1 -0 0)
(0 -0 1)
(1 0 0)
(0 -0 -1)
(1 0 0)
(0 -0 -1)
(1 0 0)
(0 -0 -1)
(1 0 0)
(0 -0 -1)
(1 0 0)
(0 -0 -1)
(1 0 0)
(0 -0 -1)
(1 0 0)
(0 -0 -1)
(1 0 0)
(0 -0 -1)
(1 0 0)
(0 -0 -1)
(1 0 0)
(0 -0 -1)
(1 0 0)
(0 -0 -1)
(1 0 0)
(0 -0 -1)
(1 0 0)
(0 -0 -1)
(1 0 0)
(0 -0 -1)
(1 0 0)
(0 -0 -1)
(1 0 0)
(0 -0 -1)
(1 0 0)
(0 -0 1)
(1 -0 0)
(0 -0 1)
(1 0 0)
(0 -0 1)
(1 -0 0)
(0 -0 1)
(1 0 -0)
(0 -0 -1)
(1 0 0)
(0 -0 1)
(0 -0 1)
(0 0 -1)
(0 1 0)
(-0 0 1)
(0 1 0)
(0 0 -1)
(0 1 0)
(0 0 -1)
(0 1 0)
(0 0 1)
(0 1 0)
(0 0 -1)
(0 1 0)
(0 0 -1)
(0 1 0)
(0 0 -1)
(0 1 0)
(0 0 -1)
(0 1 0)
(0 0 -1)
(0 1 0)
(0 0 -1)
(0 1 0)
(0 0 -1)
(0 1 0)
(0 0 -1)
(0 1 0)
(0 0 1)
(0 1 0)
(0 0 -1)
(0 1 0)
(0 0 1)
(0 1 0)
(0 0 -1)
(0 1 0)
(0 0 -1)
(0 1 0)
(0 0 -1)
(0 1 0)
(0 0 -1)
(0 1 0)
(0 0 -1)
(0 1 0)
(0 0 -1)
(0 1 -0)
(0 0 -1)
(0 1 0)
(0 0 -1)
(0 1 0)
(0 0 -1)
(0 1 0)
(0 0 1)
(0 1 0)
(0 0 -1)
(0 1 0)
(0 0 1)
(0 1 0)
(0 0 -1)
(0 1 0)
(0 0 -1)
(0 1 0)
(0 0 -1)
(0 1 0)
(0 0 -1)
(0 1 0)
(0 0 -1)
(0 1 0)
(0 0 -1)
(0 1 0)
(0 0 -1)
(0 1 0)
(0 0 -1)
(0 1 0)
(0 0 1)
(0 1 0)
(0 0 -1)
(0 1 0)
(0 0 1)
(0 1 0)
(0 0 -1)
(0 1 0)
(0 0 -1)
(0 1 0)
(0 0 -1)
(0 1 0)
(0 0 -1)
(0 1 0)
(0 0 -1)
(0 1 0)
(0 0 1)
(0 1 -0)
(0 0 1)
(0 1 0)
(0 0 1)
(0 1 -0)
(0 0 1)
(0 1 0)
(0 0 1)
(0 1 -0)
(0 0 1)
(0 1 0)
(0 0 1)
(0 1 0)
(0 0 1)
(0 1 0)
(0 0 1)
(0 1 0)
(0 0 -1)
(0 1 0)
(0 0 1)
(0 1 -0)
(0 0 1)
(0 1 0)
(0 0 1)
(0 1 -0)
(0 0 1)
(0 1 0)
(0 0 1)
(0 1 -0)
(0 0 1)
(0 1 0)
(0 0 1)
(0 1 0)
(0 0 1)
(0 1 0)
(0 0 1)
(0 1 0)
(0 0 -1)
(0 1 0)
(0 0 1)
(0 1 -0)
(0 0 1)
(0 1 0)
(0 0 1)
(0 1 -0)
(0 0 1)
(0 1 0)
(0 0 1)
(0 1 -0)
(0 0 1)
(0 1 0)
(0 0 1)
(0 1 0)
(0 0 1)
(0 1 0)
(0 0 1)
(0 1 0)
(0 0 -1)
(0 1 0)
(0 0 1)
(0 1 -0)
(0 0 1)
(0 1 0)
(0 0 1)
(0 1 -0)
(0 0 1)
(0 1 0)
(0 0 1)
(0 1 0)
(0 0 -1)
(0 1 0)
(0 0 -1)
(0 1 0)
(0 0 -1)
(0 1 0)
(0 0 1)
(0 1 -0)
(0 0 1)
(0 0 1)
(0 1 0)
(-0 0 -1)
(0 1 0)
(0 0 -1)
(0 1 0)
(0 0 1)
(-1 0 0)
(0 -1 0)
(-0 0 -1)
(-1 -0 -0)
(0 0 1)
(-1 0 0)
(0 0 -1)
(-1 0 0)
(0 0 -1)
(-1 -0 -0)
(0 0 1)
(-1 0 0)
(0 0 -1)
(-1 0 0)
(0 0 1)
(-1 0 0)
(0 0 1)
(-1 0 0)
(0 0 1)
(-1 0 0)
(0 0 1)
(-1 0 0)
(0 0 1)
(-1 0 0)
(0 0 1)
(-1 0 0)
(0 0 1)
(-1 0 0)
(0 0 -1)
(-1 0 0)
(0 0 -1)
(-1 0 0)
(0 0 -1)
(-1 0 0)
(0 0 1)
(-1 0 0)
(0 0 -1)
(-1 0 0)
(0 0 1)
(-1 0 0)
(0 0 -1)
(-1 0 0)
(0 0 1)
(-1 0 0)
(0 0 1)
(-1 0 0)
(0 0 1)
(-1 0 0)
(0 0 -1)
(-1 0 0)
(0 0 -1)
(-1 0 0)
(0 0 -1)
(-1 0 0)
(0 0 -1)
(-1 0 0)
(0 0 -1)
(-1 -0 -0)
(0 0 1)
(-1 0 0)
(0 0 -1)
(-1 -0 -0)
(0 0 1)
(-1 0 0)
(0 0 -1)
(-1 0 0)
(0 0 -1)
(-1 0 0)
(0 0 -1)
(-1 0 0)
(0 0 -1)
(-1 0 0)
(0 0 -1)
(-1 0 0)
(0 0 -1)
(-1 0 0)
(0 0 1)
(-1 -0 0)
(0 0 1)
(-1 0 0)
(0 0 -1)
(-1 -0 0)
(0 0 1)
(-1 0 0)
(0 0 -1)
(-1 -0 0)
(0 0 1)
(-1 0 0)
(0 0 -1)
(-1 0 0)
(0 0 -1)
(-1 0 0)
(0 0 1)
(-1 -0 -0)
(0 0 1)
(-1 0 0)
(0 0 1)
(-1 -0 -0)
(0 0 1)
(-1 0 0)
(0 0 -1)
(-1 0 0)
(0 0 1)
(-1 0 0)
(0 0 -1)
(-1 0 0)
(0 0 1)
(-1 -0 -0)
(0 1 0)
(0 0 1)
(0 -1 0)
(1 -0 0)
(0 0 -1)
(0 -1 0)
(0 0 1)
(0 -1 0)
(0 0 -1)
(0 -1 0)
(0 0 -1)
(0 -1 0)
(0 0 1)
(0 -1 0)
(0 0 -1)
(0 -1 0)
(0 0 -1)
(0 -1 0)
(0 0 -1)
(0 -1 0)
(0 0 -1)
(0 -1 0)
(0 0 -1)
(0 -1 0)
(0 0 -1)
(0 -1 0)
(0 0 -1)
(0 -1 0)
(0 0 -1)
(0 -1 0)
(0 0 -1)
(0 -1 0)
(0 0 -1)
(0 -1 0)
(0 0 -1)
(0 -1 0)
(0 0 -1)
(0 -1 0)
(0 0 -1)
(0 -1 0)
(0 0 -1)
(0 -1 0)
(0 0 -1)
(0 -1 0)
(0 0 -1)
(0 -1 0)
(0 0 -1)
(0 -1 0)
(0 0 -1)
(0 -1 0)
(0 0 -1)
(0 -1 0)
(0 0 -1)
(0 -1 0)
(0 0 -1)
(0 -1 0)
(0 0 -1)
(0 -1 0)
(0 0 -1)
(0 -1 0)
(0 0 -1)
(0 -1 0)
(0 0 -1)
(0 -1 0)
(0 0 -1)
(0 -1 0)
(0 0 -1)
(0 -1 0)
(0 0 -1)
(0 -1 0)
(0 0 -1)
(0 -1 0)
(0 0 -1)
(0 -1 0)
(0 0 -1)
(0 -1 0)
(0 0 -1)
(0 -1 0)
(0 0 -1)
(0 -1 0)
(0 0 -1)
(0 -1 0)
(0 0 -1)
(0 -1 0)
(0 0 -1)
(0 -1 0)
(0 0 -1)
(0 -1 0)
(0 0 -1)
(0 -1 0)
(0 0 -1)
(0 -1 0)
(0 0 1)
(0 -1 0)
(0 0 1)
(0 -1 0)
(0 0 1)
(0 -1 0)
(0 0 1)
(0 -1 0)
(0 0 1)
(0 -1 0)
(0 0 1)
(0 -1 0)
(0 0 1)
(0 -1 0)
(0 0 1)
(0 -1 0)
(0 0 1)
(0 -1 0)
(0 0 1)
(0 -1 0)
(0 0 1)
(0 -1 0)
(0 0 1)
(0 -1 0)
(0 0 1)
(0 -1 0)
(0 0 1)
(0 -1 0)
(0 0 1)
(0 -1 0)
(0 0 1)
(0 -1 0)
(0 0 1)
(0 -1 0)
(0 0 1)
(0 -1 0)
(0 0 1)
(0 -1 0)
(0 0 1)
(0 -1 -0)
(0 0 1)
(0 -1 0)
(0 0 1)
(0 -1 0)
(0 0 1)
(0 -1 0)
(0 0 1)
(0 -1 0)
(0 0 1)
(0 -1 0)
(0 0 1)
(0 -1 0)
(0 0 1)
(0 -1 0)
(0 0 1)
(0 -1 0)
(0 0 1)
(0 -1 0)
(0 0 1)
(0 -1 0)
(0 0 1)
(0 -1 0)
(0 0 1)
(0 -1 0)
(0 0 1)
(0 -1 0)
(0 0 1)
(0 -1 0)
(0 0 1)
(0 -1 0)
(0 0 1)
(0 -1 0)
(0 0 1)
(0 -1 0)
(0 0 1)
(0 -1 0)
(0 0 1)
(0 -1 0)
(0 0 -1)
(0 -1 0)
(0 0 1)
(0 -1 0)
(0 0 1)
(0 0 1)
(0 -1 0)
(0 0 -1)
(1 0 -0)
(0 1 0)
(0 -0 -1)
(1 -0 0)
(0 -0 1)
(1 0 0)
(0 -0 -1)
(1 0 -0)
(0 -0 -1)
(1 -0 0)
(0 -0 1)
(1 0 -0)
(0 -0 -1)
(1 0 0)
(0 -0 1)
(1 0 0)
(0 -0 1)
(1 0 0)
(0 -0 1)
(1 0 0)
(0 -0 1)
(1 0 0)
(0 -0 1)
(1 0 0)
(0 -0 1)
(1 0 0)
(0 -0 1)
(1 0 0)
(0 -0 1)
(1 0 0)
(0 -0 1)
(1 0 0)
(0 -0 1)
(1 0 0)