/*--------------------------------*- C++ -*----------------------------------*\
| =========                 |                                                 |
| \\      /  F ield         | OpenFOAM: The Open Source CFD Toolbox           |
|  \\    /   O peration     | Version:  v2406                                 |
|   \\  /    A nd           | Website:  www.openfoam.com                      |
|    \\/     M anipulation  |                                                 |
\*---------------------------------------------------------------------------*/
FoamFile
{
    version     2.0;
    format      ascii;
    class       dictionary;
    object      fvSchemes;
}
// * * * * * * * * * * * * * * * * * * * * * * * * * * * * * * * * * * * * * //

ddtSchemes
{
    default         steadyState;
}

gradSchemes
{
    default         cellMDlimited Gauss linear 1.0;
}

divSchemes
{
    default         none;

    div(phi,U)      Gauss linearUpwind grad(U);
    div(phi,h)      bounded Gauss upwind;
    div(phi,k)      Gauss limitedLinearV 0.33;
    div(phi,epsilon) Gauss limitedLinearV 0.33;
    div(phi,K)      bounded Gauss linear;
    div(phi,nuTilda) Gauss limitedLinear 0.7;

    div(phi,Ekp)    bounded Gauss linear;

    div(((rho*nuEff)*dev2(T(grad(U))))) Gauss linear;

    div(phi,age)    Gauss vanLeer;
}

laplacianSchemes
{
    default         Gauss linear corrected;
}

interpolationSchemes
{
    default         linear;
}

snGradSchemes
{
    default         corrected;
}

wallDist
{
     method          meshWave;
}


// ************************************************************************* //
