/*--------------------------------*- C++ -*----------------------------------*\
| =========                 |                                                 |
| \\      /  F ield         | OpenFOAM: The Open Source CFD Toolbox           |
|  \\    /   O peration     | Version:  v2406                                 |
|   \\  /    A nd           | Website:  www.openfoam.com                      |
|    \\/     M anipulation  |                                                 |
\*---------------------------------------------------------------------------*/
FoamFile
{
    version     2.0;
    format      ascii;
    class       volScalarField;
    object      k;
}
// * * * * * * * * * * * * * * * * * * * * * * * * * * * * * * * * * * * * * //

dimensions      [0 2 -2 0 0 0 0];

internalField   uniform 0.1;

boundaryField
{
    ofen_walls
    {
        type            kqRWallFunction;
        value           uniform 0.1;
    }

    keksen
    {
        type            kqRWallFunction;
        value           uniform 0.1;
    }

    hot_wall
    {
        type            kqRWallFunction;
        value           uniform 0.1;
    }

    trays
    {
        type            kqRWallFunction;
        value           uniform 0.1;
    }
    
    glass
    {
        type            kqRWallFunction;
        value           uniform 0.1;
    }
    
    fan
    {
        type            kqRWallFunction;
        value           uniform 0.1;
    }
}


// ************************************************************************* //
